$ NASTRAN input file created by the Patran 2007 r1b input file
$ translator on July      17, 2008 at 21:20:16.
$ Direct Text Input for Nastran System Cell Section
$ Linear Static Analysis, Database
SOL 101
CEND
TITLE = MSC.NASTRAN JOB CREATED ON 08-JUL-08 AT 12:59:20
ECHO = NONE
MPC = 864
SUBCASE 1
   TITLE=MSC.NASTRAN JOB CREATED ON 08-JUL-08 AT 12:59:20
   SUBTITLE=LC-MAP082
   LOAD = 20
   DISPLACEMENT(SORT1,REAL)=ALL
   SPCFORCES(SORT1,REAL)=ALL
   STRAIN(SORT1,REAL,VONMISES,STRCUR,BILIN)=ALL
   GPFORCE=ALL
   FORCE(SORT1,REAL,BILIN)=ALL
SUBCASE 2
   TITLE=MSC.NASTRAN JOB CREATED ON 08-JUL-08 AT 12:59:20
   SUBTITLE=LC-MAP170
   LOAD = 23
   DISPLACEMENT(SORT1,REAL)=ALL
   SPCFORCES(SORT1,REAL)=ALL
   STRAIN(SORT1,REAL,VONMISES,STRCUR,BILIN)=ALL
   GPFORCE=ALL
   FORCE(SORT1,REAL,BILIN)=ALL
SUBCASE 3
   TITLE=MSC.NASTRAN JOB CREATED ON 08-JUL-08 AT 12:59:20
   SUBTITLE=LC-MAP260
   LOAD = 26
   DISPLACEMENT(SORT1,REAL)=ALL
   SPCFORCES(SORT1,REAL)=ALL
   STRAIN(SORT1,REAL,VONMISES,STRCUR,BILIN)=ALL
   GPFORCE=ALL
   FORCE(SORT1,REAL,BILIN)=ALL
SUBCASE 4
   TITLE=MSC.NASTRAN JOB CREATED ON 08-JUL-08 AT 12:59:20
   SUBTITLE=LC-MAN095
   LOAD = 29
   DISPLACEMENT(SORT1,REAL)=ALL
   SPCFORCES(SORT1,REAL)=ALL
   STRAIN(SORT1,REAL,VONMISES,STRCUR,BILIN)=ALL
   GPFORCE=ALL
   FORCE(SORT1,REAL,BILIN)=ALL
SUBCASE 5
   TITLE=MSC.NASTRAN JOB CREATED ON 08-JUL-08 AT 12:59:20
   SUBTITLE=LC-MAN170
   LOAD = 32
   DISPLACEMENT(SORT1,REAL)=ALL
   SPCFORCES(SORT1,REAL)=ALL
   STRAIN(SORT1,REAL,VONMISES,STRCUR,BILIN)=ALL
   GPFORCE=ALL
   FORCE(SORT1,REAL,BILIN)=ALL
SUBCASE 6
   TITLE=MSC.NASTRAN JOB CREATED ON 08-JUL-08 AT 12:59:20
   SUBTITLE=LC-MAN260
   LOAD = 35
   DISPLACEMENT(SORT1,REAL)=ALL
   SPCFORCES(SORT1,REAL)=ALL
   STRAIN(SORT1,REAL,VONMISES,FIBER,BILIN)=ALL   
   GPFORCE=ALL
   STRESS(SORT1,REAL,VONMISES,BILIN)=ALL
   FORCE(SORT1,REAL,BILIN)=ALL
BEGIN BULK
PARAM    POST    0
PARAM    INREL   -2
PARAM   PRTMAXIM YES
$ Elements and Element Properties for region : boom_attached1_flange
PBARL    1       1               BAR
        26.8    2.6      0.
$ Pset: "boom_attached1_flange" will be imported as: "pbarl.1"
CBAR     302816  1       263138  263137  270000
CBAR     302817  1       263137  263136  270000
CBAR     302818  1       263136  263135  270000
CBAR     302819  1       263135  263134  270000
CBAR     302820  1       263134  263149  270000
CBAR     302821  1       263149  263148  270000
CBAR     302822  1       263148  263147  270000
CBAR     302823  1       263147  263146  270000
CBAR     302824  1       263146  263145  270000
CBAR     302825  1       263145  263144  270000
CBAR     302826  1       263144  263143  270000
CBAR     302827  1       263143  263142  270000
CBAR     302828  1       263142  263141  270000
CBAR     302829  1       263141  263140  270000
CBAR     302830  1       263140  263139  270000
CBAR     302831  1       263139  263138  270000
CBAR     302848  1       264085  264086  270000
CBAR     302849  1       264086  264087  270000
CBAR     302850  1       264087  264088  270000
CBAR     302851  1       264088  264089  270000
CBAR     302852  1       264089  264090  270000
CBAR     302853  1       264090  264091  270000
CBAR     302854  1       264091  264092  270000
CBAR     302855  1       264092  264093  270000
CBAR     302856  1       264093  264094  270000
CBAR     302857  1       264094  264095  270000
CBAR     302858  1       264096  264081  270000
CBAR     302859  1       264081  264082  270000
CBAR     302860  1       264082  264083  270000
CBAR     302861  1       264083  264084  270000
CBAR     302862  1       264084  264085  270000
CBAR     302863  1       264095  264096  270000
$ Elements and Element Properties for region : boom_attached2_flange
PBARL    2       1               BAR
        26.8    2.6      0.
$ Pset: "boom_attached2_flange" will be imported as: "pbarl.2"
CBAR     302832  2       263196  263197  270001
CBAR     302833  2       263197  263198  270001
CBAR     302834  2       263198  263199  270001
CBAR     302835  2       263199  263184  270001
CBAR     302836  2       263184  263185  270001
CBAR     302837  2       263185  263186  270001
CBAR     302838  2       263186  263187  270001
CBAR     302839  2       263187  263188  270001
CBAR     302840  2       263188  263189  270001
CBAR     302841  2       263189  263190  270001
CBAR     302842  2       263190  263191  270001
CBAR     302843  2       263191  263192  270001
CBAR     302844  2       263192  263193  270001
CBAR     302845  2       263193  263194  270001
CBAR     302846  2       263194  263195  270001
CBAR     302847  2       263195  263196  270001
$ Elements and Element Properties for region : boom_attached2_flange_rh
PBARL    3       1               BAR
        26.8    2.6      0.
$ Pset: "boom_attached2_flange_rh" will be imported as: "pbarl.3"
CBAR     302864  3       264145  264144  270002
CBAR     302865  3       264144  264143  270002
CBAR     302866  3       264143  264142  270002
CBAR     302867  3       264142  264141  270002
CBAR     302868  3       264141  264140  270002
CBAR     302869  3       264140  264139  270002
CBAR     302870  3       264139  264138  270002
CBAR     302871  3       264138  264137  270002
CBAR     302872  3       264137  264136  270002
CBAR     302873  3       264136  264135  270002
CBAR     302874  3       264135  264134  270002
CBAR     302875  3       264134  264133  270002
CBAR     302876  3       264133  264148  270002
CBAR     302877  3       264148  264147  270002
CBAR     302878  3       264147  264146  270002
CBAR     302879  3       264146  264145  270002
$ Elements and Element Properties for region : fuse_skin_upr
$ Composite Property Record created from P3/PATRAN composite material
$ record : pcomp.6
$ Composite Material Description :
PCOMP    4      -.4             34.6     STRN    0.     .0167
         2      .2      45.      YES     2      .2      45.      YES
         2      .2      45.      YES     2      .2      45.      YES
$ Pset: "fuse_skin_upr" will be imported as: "pcomp.4"
CQUAD4   1366    4       2640    2636    2635    2639    0.      0.
CQUAD4   1367    4       2641    2637    2636    2640    0.      0.
CQUAD4   1368    4       1803    1818    2637    2641    0.      0.
CQUAD4   1369    4       1796    1809    2648    2644    0.      0.
CQUAD4   1370    4       2644    2648    2649    2645    0.      0.
CQUAD4   1371    4       2645    2649    2650    2646    0.      0.
CQUAD4   1372    4       1809    1806    2652    2648    0.      0.
CQUAD4   1373    4       2648    2652    2653    2649    0.      0.
CQUAD4   1374    4       2649    2653    2654    2650    0.      0.
CQUAD4   1375    4       1806    1803    2641    2652    0.      0.
CQUAD4   1376    4       2652    2641    2640    2653    0.      0.
CQUAD4   1377    4       2653    2640    2639    2654    0.      0.
CQUAD4   5032    4       8316    8313    8314    8317    0.      0.
CQUAD4   5033    4       8317    8314    8315    8318    0.      0.
CQUAD4   5034    4       8318    8315    8304    8296    0.      0.
CQUAD4   5035    4       8319    8322    8300    8293    0.      0.
CQUAD4   5036    4       8320    8323    8322    8319    0.      0.
CQUAD4   5037    4       8321    8324    8323    8320    0.      0.
CQUAD4   5038    4       8322    8325    8298    8300    0.      0.
CQUAD4   5039    4       8323    8326    8325    8322    0.      0.
CQUAD4   5040    4       8324    8327    8326    8323    0.      0.
CQUAD4   5041    4       8325    8318    8296    8298    0.      0.
CQUAD4   5042    4       8326    8317    8318    8325    0.      0.
CQUAD4   5043    4       8327    8316    8317    8326    0.      0.
CQUAD4   186124  4       257566  257565  258491  258490  0.      0.
CQUAD4   186125  4       212     257566  258490  1676    0.      0.
CQUAD4   186127  4       258490  258491  258495  258494  0.      0.
CQUAD4   186128  4       1676    258490  258494  1677    0.      0.
CQUAD4   186130  4       258494  258495  258499  258498  0.      0.
CQUAD4   186131  4       1677    258494  258498  1678    0.      0.
CQUAD4   186133  4       258498  258499  258502  258503  0.      0.
CQUAD4   186134  4       1678    258498  258503  887     0.      0.
CQUAD4   186139  4       258511  258510  258518  258519  0.      0.
CQUAD4   186140  4       796     258511  258519  1734    0.      0.
CQUAD4   186142  4       258519  258518  258522  258523  0.      0.
CQUAD4   186143  4       1734    258519  258523  1733    0.      0.
CQUAD4   186145  4       258523  258522  257703  257705  0.      0.
CQUAD4   186146  4       1733    258523  257705  384     0.      0.
CQUAD4   186151  4       258535  258534  258542  258543  0.      0.
CQUAD4   186152  4       1770    258535  258543  1816    0.      0.
CQUAD4   186157  4       258547  258546  258554  258555  0.      0.
CQUAD4   186158  4       1815    258547  258555  2603    0.      0.
CQUAD4   186160  4       258555  258554  258558  258559  0.      0.
CQUAD4   186161  4       2603    258555  258559  2602    0.      0.
CQUAD4   186163  4       258559  258558  257797  257798  0.      0.
CQUAD4   186164  4       2602    258559  257798  2601    0.      0.
CQUAD4   186166  4       257834  258567  258566  257833  0.      0.
CQUAD4   186167  4       257835  258568  258567  257834  0.      0.
CQUAD4   186168  4       257836  258569  258568  257835  0.      0.
CQUAD4   186170  4       257838  258571  258570  257837  0.      0.
CQUAD4   186171  4       257839  258572  258571  257838  0.      0.
CQUAD4   186172  4       257882  258213  258572  257839  0.      0.
CQUAD4   186173  4       257898  258584  258583  257897  0.      0.
CQUAD4   186174  4       257899  258585  258584  257898  0.      0.
CQUAD4   186175  4       257900  258586  258585  257899  0.      0.
CQUAD4   186176  4       257564  257684  258586  257900  0.      0.
CQUAD4   186178  4       257947  258598  257701  257711  0.      0.
CQUAD4   186179  4       257948  258599  258598  257947  0.      0.
CQUAD4   186180  4       257932  258593  258599  257948  0.      0.
CQUAD4   186182  4       258003  258610  258609  258002  0.      0.
CQUAD4   186183  4       257988  258605  258610  258003  0.      0.
CQUAD4   186184  4       258024  258616  257808  257796  0.      0.
CQUAD4   186185  4       258025  258617  258616  258024  0.      0.
CQUAD4   186186  4       258002  258609  258617  258025  0.      0.
CQUAD4   186189  4       258274  258273  258631  258632  0.      0.
CQUAD4   186190  4       258275  258274  258632  258633  0.      0.
CQUAD4   186191  4       258213  258275  258633  258572  0.      0.
CQUAD4   186194  4       258632  258631  258637  258638  0.      0.
CQUAD4   186195  4       258633  258632  258638  258639  0.      0.
CQUAD4   186196  4       258572  258633  258639  258571  0.      0.
CQUAD4   186199  4       258638  258637  258643  258644  0.      0.
CQUAD4   186200  4       258639  258638  258644  258645  0.      0.
CQUAD4   186201  4       258571  258639  258645  258570  0.      0.
CQUAD4   186209  4       258650  258649  258654  258655  0.      0.
CQUAD4   186210  4       258651  258650  258655  258656  0.      0.
CQUAD4   186211  4       258569  258651  258656  258568  0.      0.
CQUAD4   186214  4       258655  258654  258660  258661  0.      0.
CQUAD4   186215  4       258656  258655  258661  258662  0.      0.
CQUAD4   186216  4       258568  258656  258662  258567  0.      0.
CQUAD4   186219  4       258661  258660  258665  258666  0.      0.
CQUAD4   186220  4       258662  258661  258666  258667  0.      0.
CQUAD4   186221  4       258567  258662  258667  258566  0.      0.
CQUAD4   186235  4       258693  258688  258687  258692  0.      0.
CQUAD4   186236  4       258694  258689  258688  258693  0.      0.
CQUAD4   186237  4       258695  258690  258689  258694  0.      0.
CQUAD4   186238  4       257697  257696  258690  258695  0.      0.
CQUAD4   186239  4       258698  258693  258692  258697  0.      0.
CQUAD4   186240  4       258699  258694  258693  258698  0.      0.
CQUAD4   186241  4       258700  258695  258694  258699  0.      0.
CQUAD4   186242  4       257698  257697  258695  258700  0.      0.
CQUAD4   186243  4       258584  258698  258697  258583  0.      0.
CQUAD4   186244  4       258585  258699  258698  258584  0.      0.
CQUAD4   186245  4       258586  258700  258699  258585  0.      0.
CQUAD4   186246  4       257684  257698  258700  258586  0.      0.
CQUAD4   186254  4       258713  258711  258727  258728  0.      0.
CQUAD4   186255  4       258715  258713  258728  258729  0.      0.
CQUAD4   186256  4       258593  258715  258729  258599  0.      0.
CQUAD4   186259  4       258728  258727  258733  258734  0.      0.
CQUAD4   186260  4       258729  258728  258734  258735  0.      0.
CQUAD4   186261  4       258599  258729  258735  258598  0.      0.
CQUAD4   186264  4       258734  258733  257793  257792  0.      0.
CQUAD4   186265  4       258735  258734  257792  257791  0.      0.
CQUAD4   186266  4       258598  258735  257791  257701  0.      0.
CQUAD4   186272  4       258610  258762  258756  258609  0.      0.
CQUAD4   186273  4       258762  258763  258757  258756  0.      0.
CQUAD4   186274  4       258763  258764  258758  258757  0.      0.
CQUAD4   186277  4       258605  258753  258762  258610  0.      0.
CQUAD4   186278  4       258753  258752  258763  258762  0.      0.
CQUAD4   186279  4       258752  258751  258764  258763  0.      0.
CQUAD4   186282  4       258616  258780  257818  257808  0.      0.
CQUAD4   186283  4       258780  258781  257817  257818  0.      0.
CQUAD4   186284  4       258781  258782  257816  257817  0.      0.
CQUAD4   186287  4       258617  258786  258780  258616  0.      0.
CQUAD4   186288  4       258786  258787  258781  258780  0.      0.
CQUAD4   186289  4       258787  258788  258782  258781  0.      0.
CQUAD4   186292  4       258609  258756  258786  258617  0.      0.
CQUAD4   186293  4       258756  258757  258787  258786  0.      0.
CQUAD4   186294  4       258757  258758  258788  258787  0.      0.
CQUAD4   186774  4       258055  258054  259537  259536  0.      0.
CQUAD4   186775  4       1111    258055  259536  1492    0.      0.
CQUAD4   186777  4       259536  259537  259541  259540  0.      0.
CQUAD4   186778  4       1492    259536  259540  1491    0.      0.
CQUAD4   186780  4       259540  259541  259545  259544  0.      0.
CQUAD4   186781  4       1491    259540  259544  585     0.      0.
CQUAD4   186786  4       259548  259549  259553  259552  0.      0.
CQUAD4   186787  4       1586    259548  259552  1585    0.      0.
CQUAD4   186789  4       259552  259553  259557  259556  0.      0.
CQUAD4   186790  4       1585    259552  259556  1584    0.      0.
CQUAD4   186792  4       259556  259557  259561  259560  0.      0.
CQUAD4   186793  4       1584    259556  259560  1583    0.      0.
CQUAD4   186798  4       259572  259573  259568  259569  0.      0.
CQUAD4   186799  4       7478    259572  259569  7435    0.      0.
CQUAD4   186801  4       259576  259577  259573  259572  0.      0.
CQUAD4   186802  4       7479    259576  259572  7478    0.      0.
CQUAD4   186804  4       259580  259581  259577  259576  0.      0.
CQUAD4   186805  4       7480    259580  259576  7479    0.      0.
CQUAD4   186807  4       259585  259584  259581  259580  0.      0.
CQUAD4   186808  4       7459    259585  259580  7480    0.      0.
CQUAD4   186813  4       259601  259600  259592  259593  0.      0.
CQUAD4   186814  4       7482    259601  259593  7452    0.      0.
CQUAD4   186816  4       259605  259604  259600  259601  0.      0.
CQUAD4   186817  4       7481    259605  259601  7482    0.      0.
CQUAD4   186819  4       259609  259608  259604  259605  0.      0.
CQUAD4   186820  4       7444    259609  259605  7481    0.      0.
CQUAD4   186825  4       259625  259624  259616  259617  0.      0.
CQUAD4   186826  4       7485    259625  259617  7483    0.      0.
CQUAD4   186831  4       259637  259636  259628  259629  0.      0.
CQUAD4   186832  4       7588    259637  259629  7484    0.      0.
CQUAD4   186834  4       259641  259640  259636  259637  0.      0.
CQUAD4   186835  4       7587    259641  259637  7588    0.      0.
CQUAD4   186837  4       259645  259644  259640  259641  0.      0.
CQUAD4   186838  4       7586    259645  259641  7587    0.      0.
CQUAD4   186840  4       258963  259648  259649  258964  0.      0.
CQUAD4   186841  4       258964  259649  259650  258965  0.      0.
CQUAD4   186842  4       258965  259650  259651  258966  0.      0.
CQUAD4   186844  4       258967  259652  259653  258968  0.      0.
CQUAD4   186845  4       258968  259653  259654  258969  0.      0.
CQUAD4   186846  4       258969  259654  259299  259012  0.      0.
CQUAD4   186847  4       259027  259665  259666  259028  0.      0.
CQUAD4   186848  4       259028  259666  259667  259029  0.      0.
CQUAD4   186849  4       259029  259667  259668  259030  0.      0.
CQUAD4   186850  4       259030  259668  259669  259013  0.      0.
CQUAD4   186852  4       259076  259679  259680  259077  0.      0.
CQUAD4   186853  4       259077  259680  259681  259078  0.      0.
CQUAD4   186854  4       259078  259681  259675  259062  0.      0.
CQUAD4   186856  4       259132  259691  259692  259133  0.      0.
CQUAD4   186857  4       259133  259692  259687  259118  0.      0.
CQUAD4   186858  4       259153  259697  259698  259154  0.      0.
CQUAD4   186859  4       259154  259698  259699  259155  0.      0.
CQUAD4   186860  4       259155  259699  259691  259132  0.      0.
CQUAD4   186863  4       259714  259713  259359  259360  0.      0.
CQUAD4   186864  4       259715  259714  259360  259361  0.      0.
CQUAD4   186865  4       259654  259715  259361  259299  0.      0.
CQUAD4   186868  4       259720  259719  259713  259714  0.      0.
CQUAD4   186869  4       259721  259720  259714  259715  0.      0.
CQUAD4   186870  4       259653  259721  259715  259654  0.      0.
CQUAD4   186873  4       259726  259725  259719  259720  0.      0.
CQUAD4   186874  4       259727  259726  259720  259721  0.      0.
CQUAD4   186875  4       259652  259727  259721  259653  0.      0.
CQUAD4   186883  4       259737  259736  259731  259732  0.      0.
CQUAD4   186884  4       259738  259737  259732  259733  0.      0.
CQUAD4   186885  4       259650  259738  259733  259651  0.      0.
CQUAD4   186888  4       259743  259742  259736  259737  0.      0.
CQUAD4   186889  4       259744  259743  259737  259738  0.      0.
CQUAD4   186890  4       259649  259744  259738  259650  0.      0.
CQUAD4   186893  4       259748  259747  259742  259743  0.      0.
CQUAD4   186894  4       259749  259748  259743  259744  0.      0.
CQUAD4   186895  4       259648  259749  259744  259649  0.      0.
CQUAD4   186909  4       259774  259769  259770  259775  0.      0.
CQUAD4   186910  4       259775  259770  259771  259776  0.      0.
CQUAD4   186911  4       259776  259771  259772  259777  0.      0.
CQUAD4   186912  4       259777  259772  259773  259778  0.      0.
CQUAD4   186913  4       259779  259774  259775  259780  0.      0.
CQUAD4   186914  4       259780  259775  259776  259781  0.      0.
CQUAD4   186915  4       259781  259776  259777  259782  0.      0.
CQUAD4   186916  4       259782  259777  259778  259783  0.      0.
CQUAD4   186917  4       259665  259779  259780  259666  0.      0.
CQUAD4   186918  4       259666  259780  259781  259667  0.      0.
CQUAD4   186919  4       259667  259781  259782  259668  0.      0.
CQUAD4   186920  4       259668  259782  259783  259669  0.      0.
CQUAD4   186928  4       259810  259809  259793  259795  0.      0.
CQUAD4   186929  4       259811  259810  259795  259797  0.      0.
CQUAD4   186930  4       259681  259811  259797  259675  0.      0.
CQUAD4   186933  4       259816  259815  259809  259810  0.      0.
CQUAD4   186934  4       259817  259816  259810  259811  0.      0.
CQUAD4   186935  4       259680  259817  259811  259681  0.      0.
CQUAD4   186938  4       259822  259821  259815  259816  0.      0.
CQUAD4   186939  4       259823  259822  259816  259817  0.      0.
CQUAD4   186940  4       259679  259823  259817  259680  0.      0.
CQUAD4   186946  4       259691  259838  259844  259692  0.      0.
CQUAD4   186947  4       259838  259839  259845  259844  0.      0.
CQUAD4   186948  4       259839  259840  259846  259845  0.      0.
CQUAD4   186951  4       259692  259844  259835  259687  0.      0.
CQUAD4   186952  4       259844  259845  259834  259835  0.      0.
CQUAD4   186953  4       259845  259846  259833  259834  0.      0.
CQUAD4   186956  4       259697  259856  259862  259698  0.      0.
CQUAD4   186957  4       259856  259857  259863  259862  0.      0.
CQUAD4   186958  4       259857  259858  259864  259863  0.      0.
CQUAD4   186961  4       259698  259862  259868  259699  0.      0.
CQUAD4   186962  4       259862  259863  259869  259868  0.      0.
CQUAD4   186963  4       259863  259864  259870  259869  0.      0.
CQUAD4   186966  4       259699  259868  259838  259691  0.      0.
CQUAD4   186967  4       259868  259869  259839  259838  0.      0.
CQUAD4   186968  4       259869  259870  259840  259839  0.      0.
CQUAD4   186972  4       259884  259885  259184  259185  0.      0.
CQUAD4   186973  4       7473    259884  259185  6981    0.      0.
CQUAD4   186975  4       259888  259889  259885  259884  0.      0.
CQUAD4   186976  4       7472    259888  259884  7473    0.      0.
CQUAD4   186978  4       259892  259893  259889  259888  0.      0.
CQUAD4   186979  4       7446    259892  259888  7472    0.      0.
CQUAD4   186984  4       259900  259901  259897  259896  0.      0.
CQUAD4   186985  4       7476    259900  259896  7477    0.      0.
CQUAD4   186987  4       259904  259905  259901  259900  0.      0.
CQUAD4   186988  4       7475    259904  259900  7476    0.      0.
CQUAD4   186990  4       259908  259909  259905  259904  0.      0.
CQUAD4   186991  4       7474    259908  259904  7475    0.      0.
CQUAD4   188664  4       258733  261969  261967  257793  0.      0.
CQUAD4   188666  4       258727  261971  261969  258733  0.      0.
CQUAD4   188668  4       258711  261973  261971  258727  0.      0.
CQUAD4   188672  4       258688  261977  261975  258687  0.      0.
CQUAD4   188674  4       258689  261979  261977  258688  0.      0.
CQUAD4   188676  4       258690  261981  261979  258689  0.      0.
CQUAD4   188678  4       257696  261954  261981  258690  0.      0.
CQUAD4   188682  4       258751  261986  261988  258764  0.      0.
CQUAD4   188684  4       258764  261988  261990  258758  0.      0.
CQUAD4   188686  4       258758  261990  261992  258788  0.      0.
CQUAD4   188688  4       258788  261992  261994  258782  0.      0.
CQUAD4   188690  4       258782  261994  261996  257816  0.      0.
CQUAD4   188694  4       258660  261999  261997  258665  0.      0.
CQUAD4   188696  4       258654  262001  261999  258660  0.      0.
CQUAD4   188698  4       258649  262003  262001  258654  0.      0.
CQUAD4   188702  4       258637  262007  262005  258643  0.      0.
CQUAD4   188704  4       258631  262009  262007  258637  0.      0.
CQUAD4   188706  4       258273  261906  262009  258631  0.      0.
CQUAD4   300462  4       259713  262667  262623  259359  0.      0.
CQUAD4   300464  4       259719  262669  262667  259713  0.      0.
CQUAD4   300466  4       259725  262671  262669  259719  0.      0.
CQUAD4   300470  4       259736  262675  262673  259731  0.      0.
CQUAD4   300472  4       259742  262677  262675  259736  0.      0.
CQUAD4   300474  4       259747  262679  262677  259742  0.      0.
CQUAD4   300478  4       259772  262436  262422  259773  0.      0.
CQUAD4   300480  4       259771  262435  262436  259772  0.      0.
CQUAD4   300482  4       259770  262434  262435  259771  0.      0.
CQUAD4   300484  4       259769  262433  262434  259770  0.      0.
CQUAD4   300488  4       259809  262431  262432  259793  0.      0.
CQUAD4   300490  4       259815  262430  262431  259809  0.      0.
CQUAD4   300492  4       259821  262429  262430  259815  0.      0.
CQUAD4   300496  4       259846  262701  262699  259833  0.      0.
CQUAD4   300498  4       259840  262703  262701  259846  0.      0.
CQUAD4   300500  4       259870  262705  262703  259840  0.      0.
CQUAD4   300502  4       259864  262707  262705  259870  0.      0.
CQUAD4   300504  4       259858  262709  262707  259864  0.      0.
CQUAD4   304789  4       259569  259568  271918  271920  0.      0.
CQUAD4   304791  4       7435    259569  271920  271890  0.      0.
CQUAD4   304805  4       259013  259669  271937  271906  0.      0.
CQUAD4   304807  4       259778  259773  271939  271938  0.      0.
CQUAD4   304809  4       259783  259778  271938  271940  0.      0.
CQUAD4   304811  4       259669  259783  271940  271937  0.      0.
CQUAD4   304817  4       259773  262422  271857  271939  0.      0.
CQUAD4   304918  4       272023  272049  257566  212     0.      0.
CQUAD4   304926  4       272049  272054  257565  257566  0.      0.
CQUAD4   304938  4       272055  272069  257684  257564  0.      0.
CQUAD4   304940  4       272070  272071  257696  257697  0.      0.
CQUAD4   304942  4       272072  272070  257697  257698  0.      0.
CQUAD4   304944  4       272069  272072  257698  257684  0.      0.
CQUAD4   304962  4       272071  271851  261954  257696  0.      0.
CQUAD4   305018  4       272139  272140  259608  259609  0.      0.
CQUAD4   305020  4       272085  272139  259609  7444    0.      0.
CQUAD4   305022  4       272121  272144  259679  259076  0.      0.
CQUAD4   305032  4       272144  272154  259823  259679  0.      0.
CQUAD4   305034  4       272154  272156  259822  259823  0.      0.
CQUAD4   305036  4       272156  272158  259821  259822  0.      0.
CQUAD4   305042  4       272158  271873  262429  259821  0.      0.
CQUAD4   305123  4       257705  257703  272246  272245  0.      0.
CQUAD4   305125  4       384     257705  272245  272212  0.      0.
CQUAD4   305127  4       257711  257701  272250  272249  0.      0.
CQUAD4   305137  4       257701  257791  272260  272250  0.      0.
CQUAD4   305139  4       257791  257792  272262  272260  0.      0.
CQUAD4   305141  4       257792  257793  272264  272262  0.      0.
CQUAD4   305159  4       257793  261967  271841  272264  0.      0.
CQUAD4   305247  4       259593  259592  272351  272353  0.      0.
CQUAD4   305248  4       272353  272351  259584  259585  0.      0.
CQUAD4   305249  4       7452    259593  272353  272305  0.      0.
CQUAD4   305250  4       272305  272353  259585  7459    0.      0.
CQUAD4   305251  4       259062  259675  272358  272325  0.      0.
CQUAD4   305252  4       272325  272358  259665  259027  0.      0.
CQUAD4   305253  4       259795  259793  272360  272359  0.      0.
CQUAD4   305254  4       272359  272360  259769  259774  0.      0.
CQUAD4   305255  4       259797  259795  272359  272361  0.      0.
CQUAD4   305256  4       272361  272359  259774  259779  0.      0.
CQUAD4   305257  4       259675  259797  272361  272358  0.      0.
CQUAD4   305258  4       272358  272361  259779  259665  0.      0.
CQUAD4   305261  4       259793  262432  272296  272360  0.      0.
CQUAD4   305262  4       272360  272296  262433  259769  0.      0.
CQUAD4   305379  4       258503  258502  272483  272485  0.      0.
CQUAD4   305380  4       272485  272483  258510  258511  0.      0.
CQUAD4   305381  4       887     258503  272485  272434  0.      0.
CQUAD4   305382  4       272434  272485  258511  796     0.      0.
CQUAD4   305383  4       257897  258583  272490  272458  0.      0.
CQUAD4   305384  4       272458  272490  258593  257932  0.      0.
CQUAD4   305385  4       258692  258687  272492  272491  0.      0.
CQUAD4   305386  4       272491  272492  258711  258713  0.      0.
CQUAD4   305387  4       258697  258692  272491  272493  0.      0.
CQUAD4   305388  4       272493  272491  258713  258715  0.      0.
CQUAD4   305389  4       258583  258697  272493  272490  0.      0.
CQUAD4   305390  4       272490  272493  258715  258593  0.      0.
CQUAD4   305393  4       258687  261975  272282  272492  0.      0.
CQUAD4   305394  4       272492  272282  261973  258711  0.      0.
CQUAD4   305464  4       272538  272539  259648  258963  0.      0.
CQUAD4   305468  4       272542  272543  259747  259748  0.      0.
CQUAD4   305470  4       272544  272542  259748  259749  0.      0.
CQUAD4   305472  4       272539  272544  259749  259648  0.      0.
CQUAD4   305478  4       272543  272553  262679  259747  0.      0.
CQUAD4   305486  4       272560  272561  259909  259908  0.      0.
CQUAD4   305488  4       272562  272560  259908  7474    0.      0.
CQUAD4   305607  4       1583    259560  272683  272599  0.      0.
CQUAD4   305611  4       259560  259561  272687  272683  0.      0.
CQUAD4   305623  4       257833  258566  272699  272698  0.      0.
CQUAD4   305627  4       258666  258665  272703  272702  0.      0.
CQUAD4   305629  4       258667  258666  272702  272704  0.      0.
CQUAD4   305631  4       258566  258667  272704  272699  0.      0.
CQUAD4   305637  4       258665  261997  272713  272703  0.      0.
CQUAD4   305743  4       259617  259616  272814  272816  0.      0.
CQUAD4   305745  4       7483    259617  272816  272742  0.      0.
CQUAD4   305747  4       259118  259687  272821  272786  0.      0.
CQUAD4   305751  4       259834  259833  272825  272824  0.      0.
CQUAD4   305753  4       259835  259834  272824  272826  0.      0.
CQUAD4   305755  4       259687  259835  272826  272821  0.      0.
CQUAD4   305761  4       259833  262699  272835  272825  0.      0.
CQUAD4   305864  4       272936  272934  258534  258535  0.      0.
CQUAD4   305866  4       272869  272936  258535  1770    0.      0.
CQUAD4   305868  4       272907  272941  258605  257988  0.      0.
CQUAD4   305872  4       272944  272945  258751  258752  0.      0.
CQUAD4   305874  4       272946  272944  258752  258753  0.      0.
CQUAD4   305876  4       272941  272946  258753  258605  0.      0.
CQUAD4   305878  4       272945  272951  261986  258751  0.      0.
CQUAD4   306089  4       7477    259896  273161  273069  0.      0.
CQUAD4   306090  4       273069  273161  259892  7446    0.      0.
CQUAD4   306091  4       259896  259897  273163  273161  0.      0.
CQUAD4   306092  4       273161  273163  259893  259892  0.      0.
CQUAD4   306095  4       258966  259651  273167  273165  0.      0.
CQUAD4   306096  4       273165  273167  259652  258967  0.      0.
CQUAD4   306097  4       259651  259733  273169  273167  0.      0.
CQUAD4   306098  4       273167  273169  259727  259652  0.      0.
CQUAD4   306099  4       259733  259732  273171  273169  0.      0.
CQUAD4   306100  4       273169  273171  259726  259727  0.      0.
CQUAD4   306101  4       259732  259731  273173  273171  0.      0.
CQUAD4   306102  4       273171  273173  259725  259726  0.      0.
CQUAD4   306103  4       259731  262673  273175  273173  0.      0.
CQUAD4   306104  4       273173  273175  262671  259725  0.      0.
CQUAD4   306109  4       585     259544  273181  273003  0.      0.
CQUAD4   306110  4       273003  273181  259548  1586    0.      0.
CQUAD4   306111  4       259544  259545  273183  273181  0.      0.
CQUAD4   306112  4       273181  273183  259549  259548  0.      0.
CQUAD4   306119  4       258643  262005  273188  273190  0.      0.
CQUAD4   306120  4       273190  273188  262003  258649  0.      0.
CQUAD4   306121  4       258644  258643  273190  273192  0.      0.
CQUAD4   306122  4       273192  273190  258649  258650  0.      0.
CQUAD4   306123  4       258645  258644  273192  273194  0.      0.
CQUAD4   306124  4       273194  273192  258650  258651  0.      0.
CQUAD4   306125  4       258570  258645  273194  273196  0.      0.
CQUAD4   306126  4       273196  273194  258651  258569  0.      0.
CQUAD4   306127  4       257837  258570  273196  273185  0.      0.
CQUAD4   306128  4       273185  273196  258569  257836  0.      0.
CQUAD4   306648  4       257703  273777  273778  272246  0.      0.
CQUAD4   306652  4       272934  273780  273782  258534  0.      0.
CQUAD4   306654  4       258502  273783  273784  272483  0.      0.
CQUAD4   306656  4       272483  273784  273786  258510  0.      0.
CQUAD4   306658  4       259553  273787  273788  259557  0.      0.
CQUAD4   306660  4       259557  273788  273790  259561  0.      0.
CQUAD4   306662  4       272054  273791  273792  257565  0.      0.
CQUAD4   306664  4       259561  273790  273794  272687  0.      0.
CQUAD4   306668  4       259537  273797  273798  259541  0.      0.
CQUAD4   306670  4       259541  273798  273800  259545  0.      0.
CQUAD4   306672  4       259549  273801  273787  259553  0.      0.
CQUAD4   306674  4       259545  273800  273804  273183  0.      0.
CQUAD4   306676  4       273183  273804  273801  259549  0.      0.
CQUAD4   306678  4       258054  273723  273797  259537  0.      0.
CQUAD4   306680  4       258499  273809  273783  258502  0.      0.
CQUAD4   306682  4       258495  273811  273809  258499  0.      0.
CQUAD4   306684  4       258491  273813  273811  258495  0.      0.
CQUAD4   306686  4       257565  273792  273813  258491  0.      0.
CQUAD4   306688  4       258510  273786  273818  258518  0.      0.
CQUAD4   306690  4       258518  273818  273820  258522  0.      0.
CQUAD4   306692  4       258522  273820  273777  257703  0.      0.
CQUAD4   306694  4       258534  273782  273824  258542  0.      0.
CQUAD4   306698  4       258546  273826  273828  258554  0.      0.
CQUAD4   306700  4       258554  273828  273830  258558  0.      0.
CQUAD4   306702  4       258558  273830  273832  257797  0.      0.
CQUAD4   306704  4       272140  273833  273834  259608  0.      0.
CQUAD4   306706  4       259616  273835  273836  272814  0.      0.
CQUAD4   306710  4       259592  273839  273840  272351  0.      0.
CQUAD4   306712  4       272351  273840  273842  259584  0.      0.
CQUAD4   306714  4       259901  273843  273844  259897  0.      0.
CQUAD4   306716  4       259905  273845  273843  259901  0.      0.
CQUAD4   306718  4       259909  273847  273845  259905  0.      0.
CQUAD4   306720  4       259568  273849  273850  271918  0.      0.
CQUAD4   306724  4       272561  273852  273847  259909  0.      0.
CQUAD4   306726  4       259893  273855  273856  259889  0.      0.
CQUAD4   306728  4       259897  273844  273858  273163  0.      0.
CQUAD4   306730  4       273163  273858  273855  259893  0.      0.
CQUAD4   306732  4       259889  273856  273862  259885  0.      0.
CQUAD4   306734  4       259885  273862  273666  259184  0.      0.
CQUAD4   306736  4       259573  273865  273849  259568  0.      0.
CQUAD4   306738  4       259577  273867  273865  259573  0.      0.
CQUAD4   306740  4       259581  273869  273867  259577  0.      0.
CQUAD4   306742  4       259584  273842  273869  259581  0.      0.
CQUAD4   306744  4       259600  273873  273839  259592  0.      0.
CQUAD4   306746  4       259604  273875  273873  259600  0.      0.
CQUAD4   306748  4       259608  273834  273875  259604  0.      0.
CQUAD4   306750  4       259624  273879  273835  259616  0.      0.
CQUAD4   306754  4       259636  273883  273881  259628  0.      0.
CQUAD4   306756  4       259640  273885  273883  259636  0.      0.
CQUAD4   306758  4       259644  273887  273885  259640  0.      0.
$ Elements and Element Properties for region : fuse_skin_lwr
$ Composite Property Record created from P3/PATRAN composite material
$ record : pcomp.7
$ Composite Material Description :
PCOMP    5      -.4             34.6     STRN    0.     .0167
         2      .2      45.      YES     2      .2      45.      YES
         2      .2      45.      YES     2      .2      45.      YES
$ Pset: "fuse_skin_lwr" will be imported as: "pcomp.5"
CQUAD4   928     5       1840    1839    1842    1843    0.      0.
CQUAD4   929     5       1841    1840    1843    1844    0.      0.
CQUAD4   932     5       393     392     1854    1855    0.      0.
CQUAD4   933     5       394     393     1855    1856    0.      0.
CQUAD4   934     5       1855    1854    1857    1858    0.      0.
CQUAD4   935     5       1856    1855    1858    1859    0.      0.
CQUAD4   936     5       1858    1857    811     814     0.      0.
CQUAD4   937     5       1859    1858    814     817     0.      0.
CQUAD4   938     5       890     892     1868    1864    0.      0.
CQUAD4   939     5       1864    1868    1869    1865    0.      0.
CQUAD4   940     5       1865    1869    1870    1866    0.      0.
CQUAD4   941     5       1866    1870    217     216     0.      0.
CQUAD4   942     5       892     894     1874    1868    0.      0.
CQUAD4   943     5       1868    1874    1875    1869    0.      0.
CQUAD4   944     5       1869    1875    1876    1870    0.      0.
CQUAD4   945     5       1870    1876    218     217     0.      0.
CQUAD4   950     5       914     918     1884    1889    0.      0.
CQUAD4   951     5       1889    1884    1885    1890    0.      0.
CQUAD4   952     5       1890    1885    1886    1891    0.      0.
CQUAD4   953     5       1891    1886    241     231     0.      0.
CQUAD4   954     5       913     914     1889    1899    0.      0.
CQUAD4   955     5       1899    1889    1890    1900    0.      0.
CQUAD4   956     5       1900    1890    1891    1901    0.      0.
CQUAD4   957     5       1901    1891    231     233     0.      0.
CQUAD4   958     5       912     913     1899    1904    0.      0.
CQUAD4   959     5       1904    1899    1900    1905    0.      0.
CQUAD4   960     5       1905    1900    1901    1906    0.      0.
CQUAD4   961     5       1906    1901    233     235     0.      0.
CQUAD4   962     5       906     912     1904    1909    0.      0.
CQUAD4   963     5       1909    1904    1905    1910    0.      0.
CQUAD4   964     5       1910    1905    1906    1911    0.      0.
CQUAD4   965     5       1911    1906    235     229     0.      0.
CQUAD4   974     5       894     897     1937    1874    0.      0.
CQUAD4   975     5       1874    1937    1933    1875    0.      0.
CQUAD4   976     5       1875    1933    1934    1876    0.      0.
CQUAD4   977     5       1876    1934    221     218     0.      0.
CQUAD4   985     5       414     418     1948    1952    0.      0.
CQUAD4   986     5       1952    1948    1949    1953    0.      0.
CQUAD4   987     5       1953    1949    853     847     0.      0.
CQUAD4   988     5       413     414     1952    1962    0.      0.
CQUAD4   989     5       1962    1952    1953    1959    0.      0.
CQUAD4   990     5       1959    1953    847     844     0.      0.
CQUAD4   991     5       412     413     1962    1963    0.      0.
CQUAD4   992     5       1963    1962    1959    1964    0.      0.
CQUAD4   993     5       1964    1959    844     841     0.      0.
CQUAD4   994     5       406     412     1963    1968    0.      0.
CQUAD4   995     5       1968    1963    1964    1969    0.      0.
CQUAD4   996     5       1969    1964    841     835     0.      0.
CQUAD4   1006    5       392     399     1988    1854    0.      0.
CQUAD4   1007    5       1854    1988    1989    1857    0.      0.
CQUAD4   1008    5       1857    1989    823     811     0.      0.
CQUAD4   1010    5       1997    2003    2002    1996    0.      0.
CQUAD4   1011    5       1998    2004    2003    1997    0.      0.
CQUAD4   1012    5       1999    2005    2004    1998    0.      0.
CQUAD4   1015    5       2003    2009    2008    2002    0.      0.
CQUAD4   1016    5       2004    2010    2009    2003    0.      0.
CQUAD4   1017    5       2005    2011    2010    2004    0.      0.
CQUAD4   1022    5       2009    2020    2018    2008    0.      0.
CQUAD4   1024    5       2010    2023    2020    2009    0.      0.
CQUAD4   1026    5       2011    2027    2023    2010    0.      0.
CQUAD4   1031    5       2038    2039    2036    2035    0.      0.
CQUAD4   1032    5       2021    2038    2035    2016    0.      0.
CQUAD4   1033    5       2041    2042    2039    2038    0.      0.
CQUAD4   1034    5       2024    2041    2038    2021    0.      0.
CQUAD4   1035    5       2044    2045    2042    2041    0.      0.
CQUAD4   1036    5       2025    2044    2041    2024    0.      0.
CQUAD4   1040    5       2039    2056    2060    2036    0.      0.
CQUAD4   1041    5       2042    2057    2056    2039    0.      0.
CQUAD4   1042    5       2045    2058    2057    2042    0.      0.
CQUAD4   1045    5       2056    2063    2066    2060    0.      0.
CQUAD4   1046    5       2057    2064    2063    2056    0.      0.
CQUAD4   1047    5       2058    2061    2064    2057    0.      0.
CQUAD4   1050    5       2063    2069    2068    2066    0.      0.
CQUAD4   1051    5       2064    2070    2069    2063    0.      0.
CQUAD4   1052    5       2061    2071    2070    2064    0.      0.
CQUAD4   1060    5       2071    2084    2079    2070    0.      0.
CQUAD4   1061    5       2070    2079    2080    2069    0.      0.
CQUAD4   1062    5       2069    2080    2081    2068    0.      0.
CQUAD4   1064    5       2092    2097    2096    2091    0.      0.
CQUAD4   1065    5       2093    2098    2097    2092    0.      0.
CQUAD4   1066    5       2094    2099    2098    2093    0.      0.
CQUAD4   1067    5       690     692     2099    2094    0.      0.
CQUAD4   1068    5       2097    2102    2101    2096    0.      0.
CQUAD4   1069    5       2098    2103    2102    2097    0.      0.
CQUAD4   1070    5       2099    2104    2103    2098    0.      0.
CQUAD4   1071    5       692     694     2104    2099    0.      0.
CQUAD4   1073    5       2102    2110    2107    2101    0.      0.
CQUAD4   1075    5       2103    2112    2110    2102    0.      0.
CQUAD4   1077    5       2104    2116    2112    2103    0.      0.
CQUAD4   1079    5       694     698     2116    2104    0.      0.
CQUAD4   1080    5       2125    2124    2121    2122    0.      0.
CQUAD4   1081    5       2111    2125    2122    2106    0.      0.
CQUAD4   1082    5       2129    2127    2124    2125    0.      0.
CQUAD4   1083    5       2113    2129    2125    2111    0.      0.
CQUAD4   1084    5       2132    2130    2127    2129    0.      0.
CQUAD4   1085    5       2117    2132    2129    2113    0.      0.
CQUAD4   1086    5       706     709     2130    2132    0.      0.
CQUAD4   1087    5       700     706     2132    2117    0.      0.
CQUAD4   1088    5       2124    2144    2145    2121    0.      0.
CQUAD4   1089    5       2127    2143    2144    2124    0.      0.
CQUAD4   1090    5       2130    2142    2143    2127    0.      0.
CQUAD4   1091    5       709     716     2142    2130    0.      0.
CQUAD4   1092    5       2144    2149    2150    2145    0.      0.
CQUAD4   1093    5       2143    2148    2149    2144    0.      0.
CQUAD4   1094    5       2142    2147    2148    2143    0.      0.
CQUAD4   1095    5       716     713     2147    2142    0.      0.
CQUAD4   1097    5       2148    2153    2152    2149    0.      0.
CQUAD4   1098    5       2147    2154    2153    2148    0.      0.
CQUAD4   1099    5       713     712     2154    2147    0.      0.
CQUAD4   1104    5       712     726     2162    2154    0.      0.
CQUAD4   1105    5       2154    2162    2161    2153    0.      0.
CQUAD4   1106    5       2153    2161    2160    2152    0.      0.
CQUAD4   1107    5       2152    2160    1112    1056    0.      0.
CQUAD4   1108    5       2171    2175    562     560     0.      0.
CQUAD4   1109    5       2172    2176    2175    2171    0.      0.
CQUAD4   1110    5       2091    2096    2176    2172    0.      0.
CQUAD4   1111    5       2175    2179    558     562     0.      0.
CQUAD4   1112    5       2176    2180    2179    2175    0.      0.
CQUAD4   1113    5       2096    2101    2180    2176    0.      0.
CQUAD4   1114    5       2179    2187    557     558     0.      0.
CQUAD4   1115    5       2180    2188    2187    2179    0.      0.
CQUAD4   1116    5       2101    2107    2188    2180    0.      0.
CQUAD4   1120    5       2191    2200    551     552     0.      0.
CQUAD4   1121    5       2192    2199    2200    2191    0.      0.
CQUAD4   1122    5       2106    2122    2199    2192    0.      0.
CQUAD4   1123    5       2200    2203    545     551     0.      0.
CQUAD4   1124    5       2199    2204    2203    2200    0.      0.
CQUAD4   1125    5       2122    2121    2204    2199    0.      0.
CQUAD4   1129    5       2145    2150    2212    2216    0.      0.
CQUAD4   1130    5       2216    2212    2211    2215    0.      0.
CQUAD4   1131    5       2215    2211    542     544     0.      0.
CQUAD4   1132    5       2121    2145    2216    2204    0.      0.
CQUAD4   1133    5       2204    2216    2215    2203    0.      0.
CQUAD4   1134    5       2203    2215    544     545     0.      0.
CQUAD4   1135    5       460     464     2227    2223    0.      0.
CQUAD4   1136    5       2223    2227    2228    2224    0.      0.
CQUAD4   1138    5       464     468     2231    2227    0.      0.
CQUAD4   1139    5       2227    2231    2232    2228    0.      0.
CQUAD4   1143    5       2241    2240    2237    2238    0.      0.
CQUAD4   1144    5       2231    2241    2238    2232    0.      0.
CQUAD4   1145    5       473     472     2240    2241    0.      0.
CQUAD4   1146    5       468     473     2241    2231    0.      0.
CQUAD4   1149    5       2253    2252    2249    2250    0.      0.
CQUAD4   1150    5       2240    2253    2250    2237    0.      0.
CQUAD4   1151    5       485     484     2252    2253    0.      0.
CQUAD4   1152    5       472     485     2253    2240    0.      0.
CQUAD4   1156    5       495     494     2264    2265    0.      0.
CTRIA3   1157    5       2265    2264    2262    0.      0.
CQUAD4   1158    5       2252    2265    2262    2249    0.      0.
CQUAD4   1159    5       484     495     2265    2252    0.      0.
CQUAD4   1166    5       1839    2288    2285    1842    0.      0.
CQUAD4   1169    5       2287    2297    2294    2284    0.      0.
CQUAD4   1170    5       2297    2298    2277    2294    0.      0.
CQUAD4   1177    5       2298    2318    2279    2277    0.      0.
CQUAD4   1179    5       2318    2320    2281    2279    0.      0.
CQUAD4   1181    5       2320    2324    2275    2281    0.      0.
CQUAD4   1185    5       2324    2330    2274    2275    0.      0.
CQUAD4   1196    5       2351    2352    2356    2354    0.      0.
CQUAD4   1198    5       2354    2356    2358    2357    0.      0.
CQUAD4   1200    5       2357    2358    2327    2325    0.      0.
CQUAD4   1202    5       2364    2368    2319    2301    0.      0.
CQUAD4   1203    5       2365    2369    2368    2364    0.      0.
CQUAD4   1204    5       2366    2370    2369    2365    0.      0.
CQUAD4   1205    5       2368    2372    2322    2319    0.      0.
CQUAD4   1206    5       2369    2373    2372    2368    0.      0.
CQUAD4   1207    5       2370    2374    2373    2369    0.      0.
CQUAD4   1208    5       2372    2357    2325    2322    0.      0.
CQUAD4   1209    5       2373    2354    2357    2372    0.      0.
CQUAD4   1210    5       2374    2351    2354    2373    0.      0.
CQUAD4   4492    5       7731    7730    7727    7728    0.      0.
CQUAD4   4493    5       1844    7731    7728    1841    0.      0.
CQUAD4   4496    5       7734    7733    7642    7643    0.      0.
CQUAD4   4497    5       1856    7734    7643    394     0.      0.
CQUAD4   4498    5       7737    7736    7733    7734    0.      0.
CQUAD4   4499    5       1859    7737    7734    1856    0.      0.
CQUAD4   4500    5       7687    7686    7736    7737    0.      0.
CQUAD4   4501    5       817     7687    7737    1859    0.      0.
CQUAD4   4502    5       1864    7742    7699    890     0.      0.
CQUAD4   4503    5       1865    7743    7742    1864    0.      0.
CQUAD4   4504    5       1866    7744    7743    1865    0.      0.
CQUAD4   4505    5       216     7619    7744    1866    0.      0.
CQUAD4   4506    5       7742    7745    7700    7699    0.      0.
CQUAD4   4507    5       7743    7746    7745    7742    0.      0.
CQUAD4   4508    5       7744    7747    7746    7743    0.      0.
CQUAD4   4509    5       7619    7620    7747    7744    0.      0.
CQUAD4   4514    5       7754    7751    7709    7707    0.      0.
CQUAD4   4515    5       7755    7752    7751    7754    0.      0.
CQUAD4   4516    5       7756    7753    7752    7755    0.      0.
CQUAD4   4517    5       7625    7629    7753    7756    0.      0.
CQUAD4   4518    5       7757    7754    7707    7706    0.      0.
CQUAD4   4519    5       7758    7755    7754    7757    0.      0.
CQUAD4   4520    5       7759    7756    7755    7758    0.      0.
CQUAD4   4521    5       7626    7625    7756    7759    0.      0.
CQUAD4   4522    5       7760    7757    7706    7705    0.      0.
CQUAD4   4523    5       7761    7758    7757    7760    0.      0.
CQUAD4   4524    5       7762    7759    7758    7761    0.      0.
CQUAD4   4525    5       7627    7626    7759    7762    0.      0.
CQUAD4   4526    5       7763    7760    7705    7704    0.      0.
CQUAD4   4527    5       7764    7761    7760    7763    0.      0.
CQUAD4   4528    5       7765    7762    7761    7764    0.      0.
CQUAD4   4529    5       7624    7627    7762    7765    0.      0.
CQUAD4   4538    5       7745    7774    7701    7700    0.      0.
CQUAD4   4539    5       7746    7772    7774    7745    0.      0.
CQUAD4   4540    5       7747    7773    7772    7746    0.      0.
CQUAD4   4541    5       7620    7621    7773    7747    0.      0.
CQUAD4   4549    5       7779    7777    7653    7651    0.      0.
CQUAD4   4550    5       7780    7778    7777    7779    0.      0.
CQUAD4   4551    5       7695    7697    7778    7780    0.      0.
CQUAD4   4552    5       7782    7779    7651    7650    0.      0.
CQUAD4   4553    5       7781    7780    7779    7782    0.      0.
CQUAD4   4554    5       7694    7695    7780    7781    0.      0.
CQUAD4   4555    5       7783    7782    7650    7649    0.      0.
CQUAD4   4556    5       7784    7781    7782    7783    0.      0.
CQUAD4   4557    5       7693    7694    7781    7784    0.      0.
CQUAD4   4558    5       7785    7783    7649    7648    0.      0.
CQUAD4   4559    5       7786    7784    7783    7785    0.      0.
CQUAD4   4560    5       7692    7693    7784    7786    0.      0.
CQUAD4   4570    5       7733    7791    7645    7642    0.      0.
CQUAD4   4571    5       7736    7792    7791    7733    0.      0.
CQUAD4   4572    5       7686    7689    7792    7736    0.      0.
CQUAD4   4574    5       1996    7797    7798    1997    0.      0.
CQUAD4   4575    5       1997    7798    7799    1998    0.      0.
CQUAD4   4576    5       1998    7799    7800    1999    0.      0.
CQUAD4   4579    5       7797    7801    7802    7798    0.      0.
CQUAD4   4580    5       7798    7802    7803    7799    0.      0.
CQUAD4   4581    5       7799    7803    7804    7800    0.      0.
CQUAD4   4586    5       7801    7806    7807    7802    0.      0.
CQUAD4   4588    5       7802    7807    7809    7803    0.      0.
CQUAD4   4590    5       7803    7809    7812    7804    0.      0.
CQUAD4   4595    5       7813    7814    7816    7815    0.      0.
CQUAD4   4596    5       7805    7813    7815    7808    0.      0.
CQUAD4   4597    5       7815    7816    7818    7817    0.      0.
CQUAD4   4598    5       7808    7815    7817    7810    0.      0.
CQUAD4   4599    5       7817    7818    7820    7819    0.      0.
CQUAD4   4600    5       7810    7817    7819    7811    0.      0.
CQUAD4   4604    5       7814    7824    7821    7816    0.      0.
CQUAD4   4605    5       7816    7821    7822    7818    0.      0.
CQUAD4   4606    5       7818    7822    7823    7820    0.      0.
CQUAD4   4609    5       7824    7828    7826    7821    0.      0.
CQUAD4   4610    5       7821    7826    7827    7822    0.      0.
CQUAD4   4611    5       7822    7827    7825    7823    0.      0.
CQUAD4   4614    5       7828    7829    7830    7826    0.      0.
CQUAD4   4615    5       7826    7830    7831    7827    0.      0.
CQUAD4   4616    5       7827    7831    7832    7825    0.      0.
CQUAD4   4624    5       7831    7837    7840    7832    0.      0.
CQUAD4   4625    5       7830    7838    7837    7831    0.      0.
CQUAD4   4626    5       7829    7839    7838    7830    0.      0.
CQUAD4   4628    5       2091    7845    7846    2092    0.      0.
CQUAD4   4629    5       2092    7846    7847    2093    0.      0.
CQUAD4   4630    5       2093    7847    7848    2094    0.      0.
CQUAD4   4631    5       2094    7848    7676    690     0.      0.
CQUAD4   4632    5       7845    7849    7850    7846    0.      0.
CQUAD4   4633    5       7846    7850    7851    7847    0.      0.
CQUAD4   4634    5       7847    7851    7852    7848    0.      0.
CQUAD4   4635    5       7848    7852    7677    7676    0.      0.
CQUAD4   4637    5       7849    7854    7855    7850    0.      0.
CQUAD4   4639    5       7850    7855    7857    7851    0.      0.
CQUAD4   4641    5       7851    7857    7859    7852    0.      0.
CQUAD4   4643    5       7852    7859    7678    7677    0.      0.
CQUAD4   4644    5       7862    7861    7863    7864    0.      0.
CQUAD4   4645    5       7853    7862    7864    7856    0.      0.
CQUAD4   4646    5       7864    7863    7865    7866    0.      0.
CQUAD4   4647    5       7856    7864    7866    7858    0.      0.
CQUAD4   4648    5       7866    7865    7867    7868    0.      0.
CQUAD4   4649    5       7858    7866    7868    7860    0.      0.
CQUAD4   4650    5       7868    7867    7681    7680    0.      0.
CQUAD4   4651    5       7860    7868    7680    7679    0.      0.
CQUAD4   4652    5       7861    7872    7871    7863    0.      0.
CQUAD4   4653    5       7863    7871    7870    7865    0.      0.
CQUAD4   4654    5       7865    7870    7869    7867    0.      0.
CQUAD4   4655    5       7867    7869    7684    7681    0.      0.
CQUAD4   4656    5       7872    7876    7875    7871    0.      0.
CQUAD4   4657    5       7871    7875    7874    7870    0.      0.
CQUAD4   4658    5       7870    7874    7873    7869    0.      0.
CQUAD4   4659    5       7869    7873    7683    7684    0.      0.
CQUAD4   4661    5       7875    7877    7878    7874    0.      0.
CQUAD4   4662    5       7874    7878    7879    7873    0.      0.
CQUAD4   4663    5       7873    7879    7682    7683    0.      0.
CQUAD4   4668    5       7879    7884    7685    7682    0.      0.
CQUAD4   4669    5       7878    7883    7884    7879    0.      0.
CQUAD4   4670    5       7877    7882    7883    7878    0.      0.
CQUAD4   4671    5       6956    6982    7882    7877    0.      0.
CQUAD4   4672    5       560     7673    7887    2171    0.      0.
CQUAD4   4673    5       2171    7887    7888    2172    0.      0.
CQUAD4   4674    5       2172    7888    7845    2091    0.      0.
CQUAD4   4675    5       7673    7671    7889    7887    0.      0.
CQUAD4   4676    5       7887    7889    7890    7888    0.      0.
CQUAD4   4677    5       7888    7890    7849    7845    0.      0.
CQUAD4   4678    5       7671    7670    7891    7889    0.      0.
CQUAD4   4679    5       7889    7891    7892    7890    0.      0.
CQUAD4   4680    5       7890    7892    7854    7849    0.      0.
CQUAD4   4684    5       7669    7668    7896    7893    0.      0.
CQUAD4   4685    5       7893    7896    7895    7894    0.      0.
CQUAD4   4686    5       7894    7895    7862    7853    0.      0.
CQUAD4   4687    5       7668    7667    7897    7896    0.      0.
CQUAD4   4688    5       7896    7897    7898    7895    0.      0.
CQUAD4   4689    5       7895    7898    7861    7862    0.      0.
CQUAD4   4693    5       7902    7900    7876    7872    0.      0.
CQUAD4   4694    5       7901    7899    7900    7902    0.      0.
CQUAD4   4695    5       7666    7665    7899    7901    0.      0.
CQUAD4   4696    5       7898    7902    7872    7861    0.      0.
CQUAD4   4697    5       7897    7901    7902    7898    0.      0.
CQUAD4   4698    5       7667    7666    7901    7897    0.      0.
CQUAD4   4699    5       2223    7905    7655    460     0.      0.
CQUAD4   4700    5       2224    7906    7905    2223    0.      0.
CQUAD4   4702    5       7905    7907    7656    7655    0.      0.
CQUAD4   4703    5       7906    7908    7907    7905    0.      0.
CQUAD4   4707    5       7910    7909    7911    7912    0.      0.
CQUAD4   4708    5       7908    7910    7912    7907    0.      0.
CQUAD4   4709    5       7912    7911    7657    7658    0.      0.
CQUAD4   4710    5       7907    7912    7658    7656    0.      0.
CQUAD4   4713    5       7914    7913    7915    7916    0.      0.
CQUAD4   4714    5       7909    7914    7916    7911    0.      0.
CQUAD4   4715    5       7916    7915    7659    7660    0.      0.
CQUAD4   4716    5       7911    7916    7660    7657    0.      0.
CQUAD4   4720    5       7919    7918    7662    7663    0.      0.
CTRIA3   4721    5       7918    7919    7917    0.      0.
CQUAD4   4722    5       7913    7917    7919    7915    0.      0.
CQUAD4   4723    5       7915    7919    7663    7659    0.      0.
CQUAD4   4730    5       7730    7927    7929    7727    0.      0.
CQUAD4   4733    5       7926    7932    7933    7928    0.      0.
CQUAD4   4734    5       7932    7923    7934    7933    0.      0.
CQUAD4   4741    5       7923    7924    7937    7934    0.      0.
CQUAD4   4743    5       7924    7925    7939    7937    0.      0.
CQUAD4   4745    5       7925    7922    7941    7939    0.      0.
CQUAD4   4749    5       7922    7921    7945    7941    0.      0.
CQUAD4   4751    5       7950    7952    7948    7947    0.      0.
CQUAD4   4753    5       7953    7954    7952    7950    0.      0.
CQUAD4   4755    5       7942    7943    7954    7953    0.      0.
CQUAD4   4757    5       7936    7938    7959    7956    0.      0.
CQUAD4   4758    5       7956    7959    7960    7957    0.      0.
CQUAD4   4759    5       7957    7960    7961    7958    0.      0.
CQUAD4   4760    5       7938    7940    7962    7959    0.      0.
CQUAD4   4761    5       7959    7962    7963    7960    0.      0.
CQUAD4   4762    5       7960    7963    7964    7961    0.      0.
CQUAD4   4763    5       7940    7942    7953    7962    0.      0.
CQUAD4   4764    5       7962    7953    7950    7963    0.      0.
CQUAD4   4765    5       7963    7950    7947    7964    0.      0.
CQUAD4   185877  5       258058  258059  258054  258055  0.      0.
CQUAD4   185878  5       2158    258058  258055  1111    0.      0.
CQUAD4   185880  5       258062  258063  258059  258058  0.      0.
CQUAD4   185881  5       2157    258062  258058  2158    0.      0.
CQUAD4   185883  5       258066  258067  258063  258062  0.      0.
CQUAD4   185884  5       676     258066  258062  2157    0.      0.
CQUAD4   185889  5       258074  258075  258071  258070  0.      0.
CQUAD4   185890  5       2076    258074  258070  2077    0.      0.
CQUAD4   185892  5       258078  258079  258075  258074  0.      0.
CQUAD4   185893  5       2075    258078  258074  2076    0.      0.
CQUAD4   185895  5       258082  258083  258079  258078  0.      0.
CQUAD4   185896  5       2074    258082  258078  2075    0.      0.
CQUAD4   185924  5       1881    258139  257574  239     0.      0.
CQUAD4   185925  5       1880    258140  258139  1881    0.      0.
CQUAD4   185926  5       1879    258141  258140  1880    0.      0.
CQUAD4   185927  5       916     258142  258141  1879    0.      0.
CQUAD4   185928  5       258139  258144  257573  257574  0.      0.
CQUAD4   185929  5       258140  258145  258144  258139  0.      0.
CQUAD4   185930  5       258141  258146  258145  258140  0.      0.
CQUAD4   185931  5       258142  258147  258146  258141  0.      0.
CQUAD4   185939  5       1945    258166  258154  850     0.      0.
CQUAD4   185940  5       1944    258167  258166  1945    0.      0.
CQUAD4   185941  5       416     257606  258167  1944    0.      0.
CQUAD4   185942  5       258166  258170  258155  258154  0.      0.
CQUAD4   185943  5       258167  258171  258170  258166  0.      0.
CQUAD4   185944  5       257606  257605  258171  258167  0.      0.
CQUAD4   185951  5       2331    258189  258183  2273    0.      0.
CQUAD4   185953  5       258189  258192  258182  258183  0.      0.
CQUAD4   185957  5       2359    258202  258190  2328    0.      0.
CQUAD4   185958  5       2355    258203  258202  2359    0.      0.
CQUAD4   185959  5       2353    257806  258203  2355    0.      0.
CQUAD4   185960  5       258202  258206  258193  258190  0.      0.
CQUAD4   185961  5       258203  258207  258206  258202  0.      0.
CQUAD4   185962  5       257806  257805  258207  258203  0.      0.
CQUAD4   185966  5       257881  258215  258213  257882  0.      0.
CQUAD4   185967  5       257880  258217  258215  257881  0.      0.
CQUAD4   185968  5       257879  258219  258217  257880  0.      0.
CQUAD4   185970  5       257877  258223  258221  257878  0.      0.
CQUAD4   185971  5       257876  258225  258223  257877  0.      0.
CQUAD4   185972  5       257875  258227  258225  257876  0.      0.
CQUAD4   185974  5       257927  258231  258232  257928  0.      0.
CQUAD4   185975  5       257928  258232  258233  257929  0.      0.
CQUAD4   185976  5       257929  258233  258234  257930  0.      0.
CQUAD4   185977  5       257930  258234  257673  257572  0.      0.
CQUAD4   185979  5       257972  258250  258242  257944  0.      0.
CQUAD4   185980  5       257971  258251  258250  257972  0.      0.
CQUAD4   185981  5       257604  257713  258251  257971  0.      0.
CQUAD4   185983  5       258020  258257  258258  258021  0.      0.
CQUAD4   185984  5       258021  258258  258255  258000  0.      0.
CQUAD4   185985  5       257804  257812  258264  258050  0.      0.
CQUAD4   185986  5       258050  258264  258265  258051  0.      0.
CQUAD4   185987  5       258051  258265  258257  258020  0.      0.
CQUAD4   185990  5       258280  258279  258273  258274  0.      0.
CQUAD4   185991  5       258281  258280  258274  258275  0.      0.
CQUAD4   185992  5       258215  258281  258275  258213  0.      0.
CQUAD4   185995  5       258286  258285  258279  258280  0.      0.
CQUAD4   185996  5       258287  258286  258280  258281  0.      0.
CQUAD4   185997  5       258217  258287  258281  258215  0.      0.
CQUAD4   186000  5       258292  258291  258285  258286  0.      0.
CQUAD4   186001  5       258293  258292  258286  258287  0.      0.
CQUAD4   186002  5       258219  258293  258287  258217  0.      0.
CQUAD4   186010  5       258304  258303  258297  258298  0.      0.
CQUAD4   186011  5       258305  258304  258298  258299  0.      0.
CQUAD4   186012  5       258223  258305  258299  258221  0.      0.
CQUAD4   186015  5       258310  258309  258303  258304  0.      0.
CQUAD4   186016  5       258311  258310  258304  258305  0.      0.
CQUAD4   186017  5       258225  258311  258305  258223  0.      0.
CQUAD4   186020  5       258316  258315  258309  258310  0.      0.
CQUAD4   186021  5       258317  258316  258310  258311  0.      0.
CQUAD4   186022  5       258227  258317  258311  258225  0.      0.
CQUAD4   186028  5       258231  258326  258333  258232  0.      0.
CQUAD4   186029  5       258326  258327  258334  258333  0.      0.
CQUAD4   186030  5       258327  258328  258335  258334  0.      0.
CQUAD4   186033  5       258232  258333  258342  258233  0.      0.
CQUAD4   186034  5       258333  258334  258337  258342  0.      0.
CQUAD4   186035  5       258334  258335  258338  258337  0.      0.
CQUAD4   186038  5       258233  258342  258344  258234  0.      0.
CQUAD4   186039  5       258342  258337  258345  258344  0.      0.
CQUAD4   186040  5       258337  258338  258346  258345  0.      0.
CQUAD4   186043  5       258234  258344  257675  257673  0.      0.
CQUAD4   186044  5       258344  258345  257677  257675  0.      0.
CQUAD4   186045  5       258345  258346  257679  257677  0.      0.
CQUAD4   186053  5       258250  258372  258356  258242  0.      0.
CQUAD4   186054  5       258251  258373  258372  258250  0.      0.
CQUAD4   186055  5       257713  257774  258373  258251  0.      0.
CQUAD4   186056  5       258372  258376  258357  258356  0.      0.
CQUAD4   186057  5       258373  258377  258376  258372  0.      0.
CQUAD4   186058  5       257774  257776  258377  258373  0.      0.
CQUAD4   186059  5       258376  258380  258358  258357  0.      0.
CQUAD4   186060  5       258377  258381  258380  258376  0.      0.
CQUAD4   186061  5       257776  257778  258381  258377  0.      0.
CQUAD4   186073  5       258258  258407  258394  258255  0.      0.
CQUAD4   186074  5       258257  258408  258407  258258  0.      0.
CQUAD4   186075  5       258407  258410  258396  258394  0.      0.
CQUAD4   186076  5       258408  258411  258410  258407  0.      0.
CQUAD4   186077  5       258410  258413  258398  258396  0.      0.
CQUAD4   186078  5       258411  258414  258413  258410  0.      0.
CQUAD4   186083  5       258265  258426  258408  258257  0.      0.
CQUAD4   186084  5       258264  258427  258426  258265  0.      0.
CQUAD4   186085  5       257812  257830  258427  258264  0.      0.
CQUAD4   186086  5       258426  258430  258411  258408  0.      0.
CQUAD4   186087  5       258427  258431  258430  258426  0.      0.
CQUAD4   186088  5       257830  257829  258431  258427  0.      0.
CQUAD4   186089  5       258430  258434  258414  258411  0.      0.
CQUAD4   186090  5       258431  258435  258434  258430  0.      0.
CQUAD4   186091  5       257829  257828  258435  258431  0.      0.
CQUAD4   186576  5       259185  259184  259189  259188  0.      0.
CQUAD4   186577  5       6981    259185  259188  7496    0.      0.
CQUAD4   186579  5       259188  259189  259193  259192  0.      0.
CQUAD4   186580  5       7496    259188  259192  7495    0.      0.
CQUAD4   186582  5       259192  259193  259197  259196  0.      0.
CQUAD4   186583  5       7495    259192  259196  6868    0.      0.
CQUAD4   186588  5       259200  259201  259205  259204  0.      0.
CQUAD4   186589  5       7494    259200  259204  7493    0.      0.
CQUAD4   186591  5       259204  259205  259209  259208  0.      0.
CQUAD4   186592  5       7493    259204  259208  7492    0.      0.
CQUAD4   186594  5       259208  259209  259213  259212  0.      0.
CQUAD4   186595  5       7492    259208  259212  7491    0.      0.
CQUAD4   186599  5       7436    259224  259225  7488    0.      0.
CQUAD4   186600  5       7488    259225  259226  7487    0.      0.
CQUAD4   186601  5       7487    259226  259227  7486    0.      0.
CQUAD4   186602  5       7486    259227  259228  7460    0.      0.
CQUAD4   186603  5       259224  259229  259230  259225  0.      0.
CQUAD4   186604  5       259225  259230  259231  259226  0.      0.
CQUAD4   186605  5       259226  259231  259232  259227  0.      0.
CQUAD4   186606  5       259227  259232  259233  259228  0.      0.
CQUAD4   186614  5       7458    259240  259252  7490    0.      0.
CQUAD4   186615  5       7490    259252  259253  7489    0.      0.
CQUAD4   186616  5       7489    259253  259254  7445    0.      0.
CQUAD4   186617  5       259240  259241  259256  259252  0.      0.
CQUAD4   186618  5       259252  259256  259257  259253  0.      0.
CQUAD4   186619  5       259253  259257  259258  259254  0.      0.
CQUAD4   186626  5       7497    259269  259275  7499    0.      0.
CQUAD4   186628  5       259269  259268  259278  259275  0.      0.
CQUAD4   186632  5       7498    259276  259288  7502    0.      0.
CQUAD4   186633  5       7502    259288  259289  7501    0.      0.
CQUAD4   186634  5       7501    259289  259290  7500    0.      0.
CQUAD4   186635  5       259276  259279  259292  259288  0.      0.
CQUAD4   186636  5       259288  259292  259293  259289  0.      0.
CQUAD4   186637  5       259289  259293  259294  259290  0.      0.
CQUAD4   186641  5       259012  259299  259301  259011  0.      0.
CQUAD4   186642  5       259011  259301  259303  259010  0.      0.
CQUAD4   186643  5       259010  259303  259305  259009  0.      0.
CQUAD4   186645  5       259008  259307  259309  259007  0.      0.
CQUAD4   186646  5       259007  259309  259311  259006  0.      0.
CQUAD4   186647  5       259006  259311  259313  259005  0.      0.
CQUAD4   186649  5       259058  259318  259317  259057  0.      0.
CQUAD4   186650  5       259059  259319  259318  259058  0.      0.
CQUAD4   186651  5       259060  259320  259319  259059  0.      0.
CQUAD4   186652  5       259025  259321  259320  259060  0.      0.
CQUAD4   186654  5       259074  259328  259336  259102  0.      0.
CQUAD4   186655  5       259102  259336  259337  259101  0.      0.
CQUAD4   186656  5       259101  259337  259338  259100  0.      0.
CQUAD4   186658  5       259151  259344  259343  259150  0.      0.
CQUAD4   186659  5       259130  259341  259344  259151  0.      0.
CQUAD4   186660  5       259180  259350  259349  259179  0.      0.
CQUAD4   186661  5       259181  259351  259350  259180  0.      0.
CQUAD4   186662  5       259150  259343  259351  259181  0.      0.
CQUAD4   186665  5       259360  259359  259365  259366  0.      0.
CQUAD4   186666  5       259361  259360  259366  259367  0.      0.
CQUAD4   186667  5       259299  259361  259367  259301  0.      0.
CQUAD4   186670  5       259366  259365  259371  259372  0.      0.
CQUAD4   186671  5       259367  259366  259372  259373  0.      0.
CQUAD4   186672  5       259301  259367  259373  259303  0.      0.
CQUAD4   186675  5       259372  259371  259377  259378  0.      0.
CQUAD4   186676  5       259373  259372  259378  259379  0.      0.
CQUAD4   186677  5       259303  259373  259379  259305  0.      0.
CQUAD4   186685  5       259384  259383  259389  259390  0.      0.
CQUAD4   186686  5       259385  259384  259390  259391  0.      0.
CQUAD4   186687  5       259307  259385  259391  259309  0.      0.
CQUAD4   186690  5       259390  259389  259395  259396  0.      0.
CQUAD4   186691  5       259391  259390  259396  259397  0.      0.
CQUAD4   186692  5       259309  259391  259397  259311  0.      0.
CQUAD4   186695  5       259396  259395  259401  259402  0.      0.
CQUAD4   186696  5       259397  259396  259402  259403  0.      0.
CQUAD4   186697  5       259311  259397  259403  259313  0.      0.
CQUAD4   186703  5       259318  259419  259412  259317  0.      0.
CQUAD4   186704  5       259419  259420  259413  259412  0.      0.
CQUAD4   186705  5       259420  259421  259414  259413  0.      0.
CQUAD4   186708  5       259319  259428  259419  259318  0.      0.
CQUAD4   186709  5       259428  259423  259420  259419  0.      0.
CQUAD4   186710  5       259423  259424  259421  259420  0.      0.
CQUAD4   186713  5       259320  259430  259428  259319  0.      0.
CQUAD4   186714  5       259430  259431  259423  259428  0.      0.
CQUAD4   186715  5       259431  259432  259424  259423  0.      0.
CQUAD4   186718  5       259321  259436  259430  259320  0.      0.
CQUAD4   186719  5       259436  259437  259431  259430  0.      0.
CQUAD4   186720  5       259437  259438  259432  259431  0.      0.
CQUAD4   186728  5       259328  259442  259458  259336  0.      0.
CQUAD4   186729  5       259336  259458  259459  259337  0.      0.
CQUAD4   186730  5       259337  259459  259460  259338  0.      0.
CQUAD4   186731  5       259442  259443  259462  259458  0.      0.
CQUAD4   186732  5       259458  259462  259463  259459  0.      0.
CQUAD4   186733  5       259459  259463  259464  259460  0.      0.
CQUAD4   186734  5       259443  259444  259466  259462  0.      0.
CQUAD4   186735  5       259462  259466  259467  259463  0.      0.
CQUAD4   186736  5       259463  259467  259468  259464  0.      0.
CQUAD4   186748  5       259341  259480  259493  259344  0.      0.
CQUAD4   186749  5       259344  259493  259494  259343  0.      0.
CQUAD4   186750  5       259480  259482  259496  259493  0.      0.
CQUAD4   186751  5       259493  259496  259497  259494  0.      0.
CQUAD4   186752  5       259482  259484  259499  259496  0.      0.
CQUAD4   186753  5       259496  259499  259500  259497  0.      0.
CQUAD4   186758  5       259343  259494  259512  259351  0.      0.
CQUAD4   186759  5       259351  259512  259513  259350  0.      0.
CQUAD4   186760  5       259350  259513  259514  259349  0.      0.
CQUAD4   186761  5       259494  259497  259516  259512  0.      0.
CQUAD4   186762  5       259512  259516  259517  259513  0.      0.
CQUAD4   186763  5       259513  259517  259518  259514  0.      0.
CQUAD4   186764  5       259497  259500  259520  259516  0.      0.
CQUAD4   186765  5       259516  259520  259521  259517  0.      0.
CQUAD4   186766  5       259517  259521  259522  259518  0.      0.
CQUAD4   188556  5       258279  261905  261906  258273  0.      0.
CQUAD4   188558  5       258285  261907  261905  258279  0.      0.
CQUAD4   188560  5       258291  261909  261907  258285  0.      0.
CQUAD4   188564  5       258303  261913  261911  258297  0.      0.
CQUAD4   188566  5       258309  261915  261913  258303  0.      0.
CQUAD4   188568  5       258315  261917  261915  258309  0.      0.
CQUAD4   188574  5       258346  261923  261921  257679  0.      0.
CQUAD4   188576  5       258338  261925  261923  258346  0.      0.
CQUAD4   188578  5       258335  261927  261925  258338  0.      0.
CQUAD4   188580  5       258328  261929  261927  258335  0.      0.
CQUAD4   188584  5       258380  261933  261931  258358  0.      0.
CQUAD4   188586  5       258381  261935  261933  258380  0.      0.
CQUAD4   188588  5       257778  261937  261935  258381  0.      0.
CQUAD4   188710  5       258413  262014  262012  258398  0.      0.
CQUAD4   188712  5       258414  262016  262014  258413  0.      0.
CQUAD4   188714  5       258434  262018  262016  258414  0.      0.
CQUAD4   188716  5       258435  262020  262018  258434  0.      0.
CQUAD4   188718  5       257828  262022  262020  258435  0.      0.
CQUAD4   300418  5       259359  262623  262624  259365  0.      0.
CQUAD4   300420  5       259365  262624  262626  259371  0.      0.
CQUAD4   300422  5       259371  262626  262628  259377  0.      0.
CQUAD4   300426  5       259383  262630  262632  259389  0.      0.
CQUAD4   300428  5       259389  262632  262634  259395  0.      0.
CQUAD4   300430  5       259395  262634  262636  259401  0.      0.
CQUAD4   300434  5       259438  262406  262407  259432  0.      0.
CQUAD4   300436  5       259432  262407  262408  259424  0.      0.
CQUAD4   300438  5       259424  262408  262409  259421  0.      0.
CQUAD4   300440  5       259421  262409  262410  259414  0.      0.
CQUAD4   300444  5       259444  262411  262412  259466  0.      0.
CQUAD4   300446  5       259466  262412  262413  259467  0.      0.
CQUAD4   300448  5       259467  262413  262414  259468  0.      0.
CQUAD4   300452  5       259484  262656  262658  259499  0.      0.
CQUAD4   300454  5       259499  262658  262660  259500  0.      0.
CQUAD4   300456  5       259500  262660  262662  259520  0.      0.
CQUAD4   300458  5       259520  262662  262664  259521  0.      0.
CQUAD4   300460  5       259521  262664  262666  259522  0.      0.
CQUAD4   301282  5       262892  2287    2284    262891  0.      0.
CQUAD4   301285  5       262919  7926    7928    262920  0.      0.
CQUAD4   304462  5       271484  271487  271522  271521  0.      0.
CQUAD4   304463  5       271490  271523  271522  271487  0.      0.
CQUAD4   304464  5       271493  271524  271523  271490  0.      0.
CQUAD4   304465  5       271524  271493  271496  271525  0.      0.
CQUAD4   304467  5       271521  271522  7768    7622    0.      0.
CQUAD4   304468  5       271523  7767    7768    271522  0.      0.
CQUAD4   304469  5       7767    271523  271524  7766    0.      0.
CQUAD4   304470  5       7766    271524  271525  7702    0.      0.
CQUAD4   304473  5       271484  271538  271539  271487  0.      0.
CQUAD4   304474  5       271487  271539  271541  271490  0.      0.
CQUAD4   304475  5       271490  271541  271542  271493  0.      0.
CQUAD4   304476  5       271493  271542  271544  271496  0.      0.
CQUAD4   304478  5       271544  271542  7763    7704    0.      0.
CQUAD4   304479  5       271541  7764    7763    271542  0.      0.
CQUAD4   304480  5       7764    271541  271539  7765    0.      0.
CQUAD4   304481  5       7765    271539  271538  7624    0.      0.
CQUAD4   304484  5       271552  271507  271504  271553  0.      0.
CQUAD4   304485  5       271551  271510  271507  271552  0.      0.
CQUAD4   304486  5       7691    7692    271510  271551  0.      0.
CQUAD4   304487  5       271553  7646    7789    271552  0.      0.
CQUAD4   304488  5       7790    271551  271552  7789    0.      0.
CQUAD4   304489  5       7690    7691    271551  7790    0.      0.
CQUAD4   304491  5       271562  271504  271507  271563  0.      0.
CQUAD4   304492  5       271563  271507  271510  271565  0.      0.
CQUAD4   304493  5       271510  7692    7786    271565  0.      0.
CQUAD4   304494  5       7785    271563  271565  7786    0.      0.
CQUAD4   304495  5       271563  7785    7648    271562  0.      0.
CQUAD4   304596  5       271620  271623  271726  227     0.      0.
CQUAD4   304597  5       271623  271626  271727  271726  0.      0.
CQUAD4   304598  5       271626  271629  271728  271727  0.      0.
CQUAD4   304599  5       271629  271632  271729  271728  0.      0.
CQUAD4   304601  5       271729  906     1909    271728  0.      0.
CQUAD4   304602  5       271727  271728  1909    1910    0.      0.
CQUAD4   304603  5       1910    1911    271726  271727  0.      0.
CQUAD4   304604  5       1911    229     227     271726  0.      0.
CQUAD4   304607  5       271620  271744  271745  271623  0.      0.
CQUAD4   304608  5       271626  271623  271745  271746  0.      0.
CQUAD4   304609  5       271629  271626  271746  271747  0.      0.
CQUAD4   304610  5       271747  904     271632  271629  0.      0.
CQUAD4   304612  5       271744  223     1916    271745  0.      0.
CQUAD4   304613  5       271746  271745  1916    1915    0.      0.
CQUAD4   304614  5       1915    1914    271747  271746  0.      0.
CQUAD4   304615  5       1914    900     904     271747  0.      0.
CQUAD4   304618  5       405     271760  271638  271635  0.      0.
CQUAD4   304619  5       271760  271761  271641  271638  0.      0.
CQUAD4   304620  5       271641  271761  1969    835     0.      0.
CQUAD4   304621  5       1968    1969    271761  271760  0.      0.
CQUAD4   304622  5       271760  405     406     1968    0.      0.
CQUAD4   304625  5       271773  271774  271635  271638  0.      0.
CQUAD4   304626  5       271772  271773  271638  271641  0.      0.
CQUAD4   304627  5       832     271772  271641  835     0.      0.
CQUAD4   304628  5       271774  271773  1980    400     0.      0.
CQUAD4   304629  5       1981    1980    271773  271772  0.      0.
CQUAD4   304630  5       826     1981    271772  832     0.      0.
CTRIA3   304631  5       223     271744  271620  0.      0.
CTRIA3   304634  5       271729  271632  906     0.      0.
CTRIA3   304636  5       271774  400     271635  0.      0.
CTRIA3   304638  5       271484  271521  7622    0.      0.
CTRIA3   304640  5       271544  7704    271496  0.      0.
[...]
PLOAD4*  16              306647         4.79965-5       4.79965-5
*       4.79965-5       4.79965-5
PLOAD4*  16              306774         9.24182-4       9.24182-4
*       9.24182-4       9.24182-4
PLOAD4*  16              306775         9.59501-4       9.59501-4
*       9.59501-4       9.59501-4
PLOAD4*  16              306776         3.37924-4       3.37924-4
*       3.37924-4       3.37924-4
PLOAD4*  16              306777         3.49338-4       3.49338-4
*       3.49338-4       3.49338-4
PLOAD4*  16              306806         3.37914-4       3.37914-4
*       3.37914-4       3.37914-4
PLOAD4*  16              306807         3.49329-4       3.49329-4
*       3.49329-4       3.49329-4
PLOAD4*  16              306822         9.24171-4       9.24171-4
*       9.24171-4       9.24171-4
PLOAD4*  16              306823         9.59496-4       9.59496-4
*       9.59496-4       9.59496-4
PLOAD4   16      306880 6.8359-46.8359-46.8359-46.8359-4
PLOAD4*  16              306881         6.83594-4       6.83594-4
*       6.83594-4       6.83594-4        THRU            306882
PLOAD4   16      306883 6.8359-46.8359-46.8359-46.8359-4
PLOAD4*  16              306896         5.41675-4       5.41675-4
*       5.41675-4       5.41675-4
PLOAD4*  16              306897         5.48862-4       5.48862-4
*       5.48862-4       5.48862-4
PLOAD4*  16              306898         5.84147-4       5.84147-4
*       5.84147-4       5.84147-4
PLOAD4*  16              306899         5.92297-4       5.92297-4
*       5.92297-4       5.92297-4
PLOAD4*  16              306900         6.46351-4       6.46351-4
*       6.46351-4       6.46351-4
PLOAD4*  16              306901         6.54294-4       6.54294-4
*       6.54294-4       6.54294-4
PLOAD4*  16              306902         7.11183-4       7.11183-4
*       7.11183-4       7.11183-4
PLOAD4*  16              306903         7.11159-4       7.11159-4
*       7.11159-4       7.11159-4
PLOAD4*  16              306904         6.97818-4       6.97818-4
*       6.97818-4       6.97818-4
PLOAD4*  16              306905         6.97794-4       6.97794-4
*       6.97794-4       6.97794-4
PLOAD4*  16              306906         5.48163-4       5.48163-4
*       5.48163-4       5.48163-4
PLOAD4*  16              306907         5.40871-4       5.40871-4
*       5.40871-4       5.40871-4
PLOAD4*  16              306908         5.91816-4       5.91816-4
*       5.91816-4       5.91816-4
PLOAD4*  16              306909         5.83589-4       5.83589-4
*       5.83589-4       5.83589-4
PLOAD4*  16              306910         6.54071-4       6.54071-4
*       6.54071-4       6.54071-4
PLOAD4*  16              306911         6.46088-4       6.46088-4
*       6.46088-4       6.46088-4
PLOAD4*  16              306912         7.11165-4       7.11165-4
*       7.11165-4       7.11165-4
PLOAD4   16      306913 7.1119-47.1119-47.1119-47.1119-4
PLOAD4   16      306914 6.978-4 6.978-4 6.978-4 6.978-4
PLOAD4*  16              306915         6.97825-4       6.97825-4
*       6.97825-4       6.97825-4
PLOAD4   16      306916 6.687-4 6.687-4 6.687-4 6.687-4  THRU    306919
PLOAD4   16      306920 6.6855-46.6855-46.6855-46.6855-4 THRU    306921
PLOAD4*  16              306922         6.68383-4       6.68383-4
*       6.68383-4       6.68383-4        THRU            306925
PLOAD4   16      306926 6.6855-46.6855-46.6855-46.6855-4 THRU    306927
$ Pressure Loads of Load Set : pload4.18.2D
PLOAD4*  18              36552          5.25611-4       5.25611-4
*       5.25611-4       5.25611-4
PLOAD4   18      36553  5.358-4 5.358-4 5.358-4 5.358-4  THRU    36555
PLOAD4*  18              36556          5.34148-4       5.34148-4
*       5.34148-4       5.34148-4
PLOAD4*  18              36557          5.25611-4       5.25611-4
*       5.25611-4       5.25611-4
PLOAD4   18      36558  5.358-4 5.358-4 5.358-4 5.358-4  THRU    36560
PLOAD4*  18              36561          5.34148-4       5.34148-4
*       5.34148-4       5.34148-4
PLOAD4*  18              36562          5.25611-4       5.25611-4
*       5.25611-4       5.25611-4
PLOAD4   18      36563  5.358-4 5.358-4 5.358-4 5.358-4  THRU    36565
PLOAD4*  18              36566          5.34148-4       5.34148-4
*       5.34148-4       5.34148-4
PLOAD4*  18              36567          5.25611-4       5.25611-4
*       5.25611-4       5.25611-4
PLOAD4   18      36568  5.358-4 5.358-4 5.358-4 5.358-4  THRU    36570
PLOAD4*  18              36571          5.34148-4       5.34148-4
*       5.34148-4       5.34148-4
PLOAD4*  18              36572          5.25611-4       5.25611-4
*       5.25611-4       5.25611-4
PLOAD4   18      36573  5.358-4 5.358-4 5.358-4 5.358-4  THRU    36575
PLOAD4*  18              36576          5.34148-4       5.34148-4
*       5.34148-4       5.34148-4
PLOAD4*  18              36577          5.25611-4       5.25611-4
*       5.25611-4       5.25611-4
PLOAD4   18      36578  5.358-4 5.358-4 5.358-4 5.358-4  THRU    36580
PLOAD4*  18              36581          5.34148-4       5.34148-4
*       5.34148-4       5.34148-4
PLOAD4*  18              36582          5.25611-4       5.25611-4
*       5.25611-4       5.25611-4
PLOAD4   18      36583  5.358-4 5.358-4 5.358-4 5.358-4  THRU    36585
PLOAD4*  18              36586          5.34148-4       5.34148-4
*       5.34148-4       5.34148-4
PLOAD4*  18              36587          5.25611-4       5.25611-4
*       5.25611-4       5.25611-4
PLOAD4   18      36588  5.358-4 5.358-4 5.358-4 5.358-4  THRU    36590
PLOAD4*  18              36591          5.34148-4       5.34148-4
*       5.34148-4       5.34148-4        THRU            36592
PLOAD4   18      36593  5.358-4 5.358-4 5.358-4 5.358-4  THRU    36595
PLOAD4*  18              36596          5.25611-4       5.25611-4
*       5.25611-4       5.25611-4
PLOAD4*  18              36597          5.34148-4       5.34148-4
*       5.34148-4       5.34148-4
PLOAD4   18      36598  5.358-4 5.358-4 5.358-4 5.358-4  THRU    36600
PLOAD4*  18              36601          5.25611-4       5.25611-4
*       5.25611-4       5.25611-4
PLOAD4*  18              36602          5.34148-4       5.34148-4
*       5.34148-4       5.34148-4
PLOAD4   18      36603  5.358-4 5.358-4 5.358-4 5.358-4  THRU    36605
PLOAD4*  18              36606          5.25611-4       5.25611-4
*       5.25611-4       5.25611-4
PLOAD4*  18              36607          5.34148-4       5.34148-4
*       5.34148-4       5.34148-4
PLOAD4   18      36608  5.358-4 5.358-4 5.358-4 5.358-4  THRU    36610
PLOAD4*  18              36611          5.25611-4       5.25611-4
*       5.25611-4       5.25611-4
PLOAD4*  18              36612          5.34148-4       5.34148-4
*       5.34148-4       5.34148-4
PLOAD4   18      36613  5.358-4 5.358-4 5.358-4 5.358-4  THRU    36615
PLOAD4*  18              36616          5.25611-4       5.25611-4
*       5.25611-4       5.25611-4
PLOAD4*  18              36617          5.34148-4       5.34148-4
*       5.34148-4       5.34148-4
PLOAD4   18      36618  5.358-4 5.358-4 5.358-4 5.358-4  THRU    36620
PLOAD4*  18              36621          5.25611-4       5.25611-4
*       5.25611-4       5.25611-4
PLOAD4*  18              36622          5.34148-4       5.34148-4
*       5.34148-4       5.34148-4
PLOAD4   18      36623  5.358-4 5.358-4 5.358-4 5.358-4  THRU    36625
PLOAD4*  18              36626          5.25611-4       5.25611-4
*       5.25611-4       5.25611-4
PLOAD4*  18              36627          5.34148-4       5.34148-4
*       5.34148-4       5.34148-4
PLOAD4   18      36628  5.358-4 5.358-4 5.358-4 5.358-4  THRU    36630
PLOAD4*  18              36631          5.25611-4       5.25611-4
*       5.25611-4       5.25611-4
PLOAD4*  18              36632          3.39802-4       3.39802-4
*       3.39802-4       3.39802-4
PLOAD4*  18              36633          3.86509-4       3.86509-4
*       3.86509-4       3.86509-4
PLOAD4*  18              36634          4.33253-4       4.33253-4
*       4.33253-4       4.33253-4
PLOAD4*  18              36635          4.80028-4       4.80028-4
*       4.80028-4       4.80028-4
PLOAD4*  18              36636          3.39802-4       3.39802-4
*       3.39802-4       3.39802-4
PLOAD4*  18              36637          3.86509-4       3.86509-4
*       3.86509-4       3.86509-4
PLOAD4*  18              36638          4.33253-4       4.33253-4
*       4.33253-4       4.33253-4
PLOAD4*  18              36639          4.80028-4       4.80028-4
*       4.80028-4       4.80028-4
PLOAD4*  18              36640          3.39802-4       3.39802-4
*       3.39802-4       3.39802-4
PLOAD4*  18              36641          3.86509-4       3.86509-4
*       3.86509-4       3.86509-4
PLOAD4*  18              36642          4.33253-4       4.33253-4
*       4.33253-4       4.33253-4
PLOAD4*  18              36643          4.80028-4       4.80028-4
*       4.80028-4       4.80028-4
PLOAD4*  18              36644          3.39802-4       3.39802-4
*       3.39802-4       3.39802-4
PLOAD4*  18              36645          3.86509-4       3.86509-4
*       3.86509-4       3.86509-4
PLOAD4*  18              36646          4.33253-4       4.33253-4
*       4.33253-4       4.33253-4
PLOAD4*  18              36647          4.80028-4       4.80028-4
*       4.80028-4       4.80028-4
PLOAD4*  18              36648          3.39802-4       3.39802-4
*       3.39802-4       3.39802-4
PLOAD4*  18              36649          3.86509-4       3.86509-4
*       3.86509-4       3.86509-4
PLOAD4*  18              36650          4.33253-4       4.33253-4
*       4.33253-4       4.33253-4
PLOAD4*  18              36651          4.80028-4       4.80028-4
*       4.80028-4       4.80028-4
PLOAD4*  18              36652          3.39802-4       3.39802-4
*       3.39802-4       3.39802-4
PLOAD4*  18              36653          3.86509-4       3.86509-4
*       3.86509-4       3.86509-4
PLOAD4*  18              36654          4.33253-4       4.33253-4
*       4.33253-4       4.33253-4
PLOAD4*  18              36655          4.80028-4       4.80028-4
*       4.80028-4       4.80028-4
PLOAD4*  18              36656          3.39802-4       3.39802-4
*       3.39802-4       3.39802-4
PLOAD4*  18              36657          3.86509-4       3.86509-4
*       3.86509-4       3.86509-4
PLOAD4*  18              36658          4.33253-4       4.33253-4
*       4.33253-4       4.33253-4
PLOAD4*  18              36659          4.80028-4       4.80028-4
*       4.80028-4       4.80028-4
PLOAD4*  18              36660          3.39802-4       3.39802-4
*       3.39802-4       3.39802-4
PLOAD4*  18              36661          3.86509-4       3.86509-4
*       3.86509-4       3.86509-4
PLOAD4*  18              36662          4.33253-4       4.33253-4
*       4.33253-4       4.33253-4
PLOAD4*  18              36663          4.80028-4       4.80028-4
*       4.80028-4       4.80028-4
PLOAD4*  18              36696          4.80029-4       4.80029-4
*       4.80029-4       4.80029-4        THRU            36703
PLOAD4*  18              36704          4.33254-4       4.33254-4
*       4.33254-4       4.33254-4        THRU            36706
PLOAD4*  18              36707          4.33253-4       4.33253-4
*       4.33253-4       4.33253-4        THRU            36711
PLOAD4*  18              36712          3.86509-4       3.86509-4
*       3.86509-4       3.86509-4        THRU            36714
PLOAD4*  18              36715          3.86508-4       3.86508-4
*       3.86508-4       3.86508-4        THRU            36719
PLOAD4*  18              36720          3.39802-4       3.39802-4
*       3.39802-4       3.39802-4        THRU            36727
PLOAD4*  18              37684          5.25611-4       5.25611-4
*       5.25611-4       5.25611-4
PLOAD4   18      37685  5.358-4 5.358-4 5.358-4 5.358-4  THRU    37687
PLOAD4*  18              37688          5.34148-4       5.34148-4
*       5.34148-4       5.34148-4
PLOAD4*  18              37689          5.25611-4       5.25611-4
*       5.25611-4       5.25611-4
PLOAD4   18      37690  5.358-4 5.358-4 5.358-4 5.358-4  THRU    37692
PLOAD4*  18              37693          5.34148-4       5.34148-4
*       5.34148-4       5.34148-4
PLOAD4*  18              37694          5.25611-4       5.25611-4
*       5.25611-4       5.25611-4
PLOAD4   18      37695  5.358-4 5.358-4 5.358-4 5.358-4  THRU    37697
PLOAD4*  18              37698          5.34148-4       5.34148-4
*       5.34148-4       5.34148-4
PLOAD4*  18              37699          5.25611-4       5.25611-4
*       5.25611-4       5.25611-4
PLOAD4   18      37700  5.358-4 5.358-4 5.358-4 5.358-4  THRU    37702
PLOAD4*  18              37703          5.34148-4       5.34148-4
*       5.34148-4       5.34148-4
PLOAD4*  18              37704          5.25611-4       5.25611-4
*       5.25611-4       5.25611-4
PLOAD4   18      37705  5.358-4 5.358-4 5.358-4 5.358-4  THRU    37707
PLOAD4*  18              37708          5.34148-4       5.34148-4
*       5.34148-4       5.34148-4
PLOAD4*  18              37709          5.25611-4       5.25611-4
*       5.25611-4       5.25611-4
PLOAD4   18      37710  5.358-4 5.358-4 5.358-4 5.358-4  THRU    37712
PLOAD4*  18              37713          5.34148-4       5.34148-4
*       5.34148-4       5.34148-4
PLOAD4*  18              37714          5.25611-4       5.25611-4
*       5.25611-4       5.25611-4
PLOAD4   18      37715  5.358-4 5.358-4 5.358-4 5.358-4  THRU    37717
PLOAD4*  18              37718          5.34148-4       5.34148-4
*       5.34148-4       5.34148-4
PLOAD4*  18              37719          5.25611-4       5.25611-4
*       5.25611-4       5.25611-4
PLOAD4   18      37720  5.358-4 5.358-4 5.358-4 5.358-4  THRU    37722
PLOAD4*  18              37723          5.34148-4       5.34148-4
*       5.34148-4       5.34148-4        THRU            37724
PLOAD4   18      37725  5.358-4 5.358-4 5.358-4 5.358-4  THRU    37727
PLOAD4*  18              37728          5.25611-4       5.25611-4
*       5.25611-4       5.25611-4
PLOAD4*  18              37729          5.34148-4       5.34148-4
*       5.34148-4       5.34148-4
PLOAD4   18      37730  5.358-4 5.358-4 5.358-4 5.358-4  THRU    37732
PLOAD4*  18              37733          5.25611-4       5.25611-4
*       5.25611-4       5.25611-4
PLOAD4*  18              37734          5.34148-4       5.34148-4
*       5.34148-4       5.34148-4
PLOAD4   18      37735  5.358-4 5.358-4 5.358-4 5.358-4  THRU    37737
PLOAD4*  18              37738          5.25611-4       5.25611-4
*       5.25611-4       5.25611-4
PLOAD4*  18              37739          5.34148-4       5.34148-4
*       5.34148-4       5.34148-4
PLOAD4   18      37740  5.358-4 5.358-4 5.358-4 5.358-4  THRU    37742
PLOAD4*  18              37743          5.25611-4       5.25611-4
*       5.25611-4       5.25611-4
PLOAD4*  18              37744          5.34148-4       5.34148-4
*       5.34148-4       5.34148-4
PLOAD4   18      37745  5.358-4 5.358-4 5.358-4 5.358-4  THRU    37747
PLOAD4*  18              37748          5.25611-4       5.25611-4
*       5.25611-4       5.25611-4
PLOAD4*  18              37749          5.34148-4       5.34148-4
*       5.34148-4       5.34148-4
PLOAD4   18      37750  5.358-4 5.358-4 5.358-4 5.358-4  THRU    37752
PLOAD4*  18              37753          5.25611-4       5.25611-4
*       5.25611-4       5.25611-4
PLOAD4*  18              37754          5.34148-4       5.34148-4
*       5.34148-4       5.34148-4
PLOAD4   18      37755  5.358-4 5.358-4 5.358-4 5.358-4  THRU    37757
PLOAD4*  18              37758          5.25611-4       5.25611-4
*       5.25611-4       5.25611-4
PLOAD4*  18              37759          5.34148-4       5.34148-4
*       5.34148-4       5.34148-4
PLOAD4   18      37760  5.358-4 5.358-4 5.358-4 5.358-4  THRU    37762
PLOAD4*  18              37763          5.25611-4       5.25611-4
*       5.25611-4       5.25611-4
PLOAD4*  18              37764          3.39802-4       3.39802-4
*       3.39802-4       3.39802-4
PLOAD4*  18              37765          3.86509-4       3.86509-4
*       3.86509-4       3.86509-4
PLOAD4*  18              37766          4.33253-4       4.33253-4
*       4.33253-4       4.33253-4
PLOAD4*  18              37767          4.80028-4       4.80028-4
*       4.80028-4       4.80028-4
PLOAD4*  18              37768          3.39802-4       3.39802-4
*       3.39802-4       3.39802-4
PLOAD4*  18              37769          3.86509-4       3.86509-4
*       3.86509-4       3.86509-4
PLOAD4*  18              37770          4.33253-4       4.33253-4
*       4.33253-4       4.33253-4
PLOAD4*  18              37771          4.80028-4       4.80028-4
*       4.80028-4       4.80028-4
PLOAD4*  18              37772          3.39802-4       3.39802-4
*       3.39802-4       3.39802-4
PLOAD4*  18              37773          3.86509-4       3.86509-4
*       3.86509-4       3.86509-4
PLOAD4*  18              37774          4.33253-4       4.33253-4
*       4.33253-4       4.33253-4
PLOAD4*  18              37775          4.80028-4       4.80028-4
*       4.80028-4       4.80028-4
PLOAD4*  18              37776          3.39802-4       3.39802-4
*       3.39802-4       3.39802-4
PLOAD4*  18              37777          3.86509-4       3.86509-4
*       3.86509-4       3.86509-4
PLOAD4*  18              37778          4.33253-4       4.33253-4
*       4.33253-4       4.33253-4
PLOAD4*  18              37779          4.80028-4       4.80028-4
*       4.80028-4       4.80028-4
PLOAD4*  18              37780          3.39802-4       3.39802-4
*       3.39802-4       3.39802-4
PLOAD4*  18              37781          3.86509-4       3.86509-4
*       3.86509-4       3.86509-4
PLOAD4*  18              37782          4.33253-4       4.33253-4
*       4.33253-4       4.33253-4
PLOAD4*  18              37783          4.80028-4       4.80028-4
*       4.80028-4       4.80028-4
PLOAD4*  18              37784          3.39802-4       3.39802-4
*       3.39802-4       3.39802-4
PLOAD4*  18              37785          3.86509-4       3.86509-4
*       3.86509-4       3.86509-4
PLOAD4*  18              37786          4.33253-4       4.33253-4
*       4.33253-4       4.33253-4
PLOAD4*  18              37787          4.80028-4       4.80028-4
*       4.80028-4       4.80028-4
PLOAD4*  18              37788          3.39802-4       3.39802-4
*       3.39802-4       3.39802-4
PLOAD4*  18              37789          3.86509-4       3.86509-4
*       3.86509-4       3.86509-4
PLOAD4*  18              37790          4.33253-4       4.33253-4
*       4.33253-4       4.33253-4
PLOAD4*  18              37791          4.80028-4       4.80028-4
*       4.80028-4       4.80028-4
PLOAD4*  18              37792          3.39802-4       3.39802-4
*       3.39802-4       3.39802-4
PLOAD4*  18              37793          3.86509-4       3.86509-4
*       3.86509-4       3.86509-4
PLOAD4*  18              37794          4.33253-4       4.33253-4
*       4.33253-4       4.33253-4
PLOAD4*  18              37795          4.80028-4       4.80028-4
*       4.80028-4       4.80028-4
PLOAD4*  18              37828          4.80029-4       4.80029-4
*       4.80029-4       4.80029-4        THRU            37835
PLOAD4*  18              37836          4.33254-4       4.33254-4
*       4.33254-4       4.33254-4        THRU            37838
PLOAD4*  18              37839          4.33253-4       4.33253-4
*       4.33253-4       4.33253-4        THRU            37843
PLOAD4*  18              37844          3.86509-4       3.86509-4
*       3.86509-4       3.86509-4        THRU            37846
PLOAD4*  18              37847          3.86508-4       3.86508-4
*       3.86508-4       3.86508-4        THRU            37851
PLOAD4*  18              37852          3.39802-4       3.39802-4
*       3.39802-4       3.39802-4        THRU            37859
$ Referenced Coordinate Frames
ENDDATA c3391128
